data/13Bus-Modificado/Load13Bus.dss
New Load.646_2_1 Bus1=646.2 Phases=1 Conn=Wye Model=1 kV=2.402 kW=2.396 kvar=1.375 daily=MyShape1
New Load.646_2_2 Bus1=646.2 Phases=1 Conn=Wye Model=1 kV=2.402 kW=2.396 kvar=1.375 daily=MyShape2
New Load.646_2_3 Bus1=646.2 Phases=1 Conn=Wye Model=1 kV=2.402 kW=2.396 kvar=1.375 daily=MyShape3
New Load.646_2_4 Bus1=646.2 Phases=1 Conn=Wye Model=1 kV=2.402 kW=2.396 kvar=1.375 daily=MyShape4
New Load.646_2_5 Bus1=646.2 Phases=1 Conn=Wye Model=1 kV=2.402 kW=2.396 kvar=1.375 daily=MyShape5
New Load.646_2_6 Bus1=646.2 Phases=1 Conn=Wye Model=1 kV=2.402 kW=2.396 kvar=1.375 daily=MyShape6
New Load.646_2_7 Bus1=646.2 Phases=1 Conn=Wye Model=1 kV=2.402 kW=2.396 kvar=1.375 daily=MyShape7
New Load.646_2_8 Bus1=646.2 Phases=1 Conn=Wye Model=1 kV=2.402 kW=2.396 kvar=1.375 daily=MyShape8
New Load.646_2_9 Bus1=646.2 Phases=1 Conn=Wye Model=1 kV=2.402 kW=2.396 kvar=1.375 daily=MyShape9
New Load.646_2_10 Bus1=646.2 Phases=1 Conn=Wye Model=1 kV=2.402 kW=2.396 kvar=1.375 daily=MyShape10
New Load.646_2_11 Bus1=646.2 Phases=1 Conn=Wye Model=1 kV=2.402 kW=2.396 kvar=1.375 daily=MyShape11
New Load.646_2_12 Bus1=646.2 Phases=1 Conn=Wye Model=1 kV=2.402 kW=2.396 kvar=1.375 daily=MyShape12
New Load.646_2_13 Bus1=646.2 Phases=1 Conn=Wye Model=1 kV=2.402 kW=2.396 kvar=1.375 daily=MyShape13
New Load.646_2_14 Bus1=646.2 Phases=1 Conn=Wye Model=1 kV=2.402 kW=2.396 kvar=1.375 daily=MyShape14
New Load.646_2_15 Bus1=646.2 Phases=1 Conn=Wye Model=1 kV=2.402 kW=2.396 kvar=1.375 daily=MyShape15
New Load.646_2_16 Bus1=646.2 Phases=1 Conn=Wye Model=1 kV=2.402 kW=2.396 kvar=1.375 daily=MyShape16
New Load.646_2_17 Bus1=646.2 Phases=1 Conn=Wye Model=1 kV=2.402 kW=2.396 kvar=1.375 daily=MyShape17
New Load.646_2_18 Bus1=646.2 Phases=1 Conn=Wye Model=1 kV=2.402 kW=2.396 kvar=1.375 daily=MyShape18
New Load.646_2_19 Bus1=646.2 Phases=1 Conn=Wye Model=1 kV=2.402 kW=2.396 kvar=1.375 daily=MyShape19
New Load.646_2_20 Bus1=646.2 Phases=1 Conn=Wye Model=1 kV=2.402 kW=2.396 kvar=1.375 daily=MyShape20
New Load.646_2_21 Bus1=646.2 Phases=1 Conn=Wye Model=1 kV=2.402 kW=2.396 kvar=1.375 daily=MyShape21
New Load.646_2_22 Bus1=646.2 Phases=1 Conn=Wye Model=1 kV=2.402 kW=2.396 kvar=1.375 daily=MyShape22
New Load.646_2_23 Bus1=646.2 Phases=1 Conn=Wye Model=1 kV=2.402 kW=2.396 kvar=1.375 daily=MyShape23
New Load.646_2_24 Bus1=646.2 Phases=1 Conn=Wye Model=1 kV=2.402 kW=2.396 kvar=1.375 daily=MyShape24
New Load.646_2_25 Bus1=646.2 Phases=1 Conn=Wye Model=1 kV=2.402 kW=2.396 kvar=1.375 daily=MyShape25
New Load.646_2_26 Bus1=646.2 Phases=1 Conn=Wye Model=1 kV=2.402 kW=2.396 kvar=1.375 daily=MyShape26
New Load.646_2_27 Bus1=646.2 Phases=1 Conn=Wye Model=1 kV=2.402 kW=2.396 kvar=1.375 daily=MyShape27
New Load.646_2_28 Bus1=646.2 Phases=1 Conn=Wye Model=1 kV=2.402 kW=2.396 kvar=1.375 daily=MyShape28
New Load.646_2_29 Bus1=646.2 Phases=1 Conn=Wye Model=1 kV=2.402 kW=2.396 kvar=1.375 daily=MyShape29
New Load.646_2_30 Bus1=646.2 Phases=1 Conn=Wye Model=1 kV=2.402 kW=2.396 kvar=1.375 daily=MyShape30
New Load.646_2_31 Bus1=646.2 Phases=1 Conn=Wye Model=1 kV=2.402 kW=2.396 kvar=1.375 daily=MyShape31
New Load.646_2_32 Bus1=646.2 Phases=1 Conn=Wye Model=1 kV=2.402 kW=2.396 kvar=1.375 daily=MyShape32
New Load.646_2_33 Bus1=646.2 Phases=1 Conn=Wye Model=1 kV=2.402 kW=2.396 kvar=1.375 daily=MyShape33
New Load.646_2_34 Bus1=646.2 Phases=1 Conn=Wye Model=1 kV=2.402 kW=2.396 kvar=1.375 daily=MyShape34
New Load.646_2_35 Bus1=646.2 Phases=1 Conn=Wye Model=1 kV=2.402 kW=2.396 kvar=1.375 daily=MyShape35
New Load.646_2_36 Bus1=646.2 Phases=1 Conn=Wye Model=1 kV=2.402 kW=2.396 kvar=1.375 daily=MyShape36
New Load.646_2_37 Bus1=646.2 Phases=1 Conn=Wye Model=1 kV=2.402 kW=2.396 kvar=1.375 daily=MyShape37
New Load.646_2_38 Bus1=646.2 Phases=1 Conn=Wye Model=1 kV=2.402 kW=2.396 kvar=1.375 daily=MyShape38
New Load.646_2_39 Bus1=646.2 Phases=1 Conn=Wye Model=1 kV=2.402 kW=2.396 kvar=1.375 daily=MyShape39
New Load.646_2_40 Bus1=646.2 Phases=1 Conn=Wye Model=1 kV=2.402 kW=2.396 kvar=1.375 daily=MyShape40
New Load.646_2_41 Bus1=646.2 Phases=1 Conn=Wye Model=1 kV=2.402 kW=2.396 kvar=1.375 daily=MyShape41
New Load.646_2_42 Bus1=646.2 Phases=1 Conn=Wye Model=1 kV=2.402 kW=2.396 kvar=1.375 daily=MyShape42
New Load.646_2_43 Bus1=646.2 Phases=1 Conn=Wye Model=1 kV=2.402 kW=2.396 kvar=1.375 daily=MyShape43
New Load.646_2_44 Bus1=646.2 Phases=1 Conn=Wye Model=1 kV=2.402 kW=2.396 kvar=1.375 daily=MyShape44
New Load.646_2_45 Bus1=646.2 Phases=1 Conn=Wye Model=1 kV=2.402 kW=2.396 kvar=1.375 daily=MyShape45
New Load.646_2_46 Bus1=646.2 Phases=1 Conn=Wye Model=1 kV=2.402 kW=2.396 kvar=1.375 daily=MyShape46
New Load.646_2_47 Bus1=646.2 Phases=1 Conn=Wye Model=1 kV=2.402 kW=2.396 kvar=1.375 daily=MyShape47
New Load.646_2_48 Bus1=646.2 Phases=1 Conn=Wye Model=1 kV=2.402 kW=2.396 kvar=1.375 daily=MyShape48
New Load.646_3_1 Bus1=646.3 Phases=1 Conn=Wye Model=1 kV=2.402 kW=2.255 kvar=1.294 daily=MyShape49
New Load.646_3_2 Bus1=646.3 Phases=1 Conn=Wye Model=1 kV=2.402 kW=2.255 kvar=1.294 daily=MyShape50
New Load.646_3_3 Bus1=646.3 Phases=1 Conn=Wye Model=1 kV=2.402 kW=2.255 kvar=1.294 daily=MyShape1
New Load.646_3_4 Bus1=646.3 Phases=1 Conn=Wye Model=1 kV=2.402 kW=2.255 kvar=1.294 daily=MyShape2
New Load.646_3_5 Bus1=646.3 Phases=1 Conn=Wye Model=1 kV=2.402 kW=2.255 kvar=1.294 daily=MyShape3
New Load.646_3_6 Bus1=646.3 Phases=1 Conn=Wye Model=1 kV=2.402 kW=2.255 kvar=1.294 daily=MyShape4
New Load.646_3_7 Bus1=646.3 Phases=1 Conn=Wye Model=1 kV=2.402 kW=2.255 kvar=1.294 daily=MyShape5
New Load.646_3_8 Bus1=646.3 Phases=1 Conn=Wye Model=1 kV=2.402 kW=2.255 kvar=1.294 daily=MyShape6
New Load.646_3_9 Bus1=646.3 Phases=1 Conn=Wye Model=1 kV=2.402 kW=2.255 kvar=1.294 daily=MyShape7
New Load.646_3_10 Bus1=646.3 Phases=1 Conn=Wye Model=1 kV=2.402 kW=2.255 kvar=1.294 daily=MyShape8
New Load.646_3_11 Bus1=646.3 Phases=1 Conn=Wye Model=1 kV=2.402 kW=2.255 kvar=1.294 daily=MyShape9
New Load.646_3_12 Bus1=646.3 Phases=1 Conn=Wye Model=1 kV=2.402 kW=2.255 kvar=1.294 daily=MyShape10
New Load.646_3_13 Bus1=646.3 Phases=1 Conn=Wye Model=1 kV=2.402 kW=2.255 kvar=1.294 daily=MyShape11
New Load.646_3_14 Bus1=646.3 Phases=1 Conn=Wye Model=1 kV=2.402 kW=2.255 kvar=1.294 daily=MyShape12
New Load.646_3_15 Bus1=646.3 Phases=1 Conn=Wye Model=1 kV=2.402 kW=2.255 kvar=1.294 daily=MyShape13
New Load.646_3_16 Bus1=646.3 Phases=1 Conn=Wye Model=1 kV=2.402 kW=2.255 kvar=1.294 daily=MyShape14
New Load.646_3_17 Bus1=646.3 Phases=1 Conn=Wye Model=1 kV=2.402 kW=2.255 kvar=1.294 daily=MyShape15
New Load.646_3_18 Bus1=646.3 Phases=1 Conn=Wye Model=1 kV=2.402 kW=2.255 kvar=1.294 daily=MyShape16
New Load.646_3_19 Bus1=646.3 Phases=1 Conn=Wye Model=1 kV=2.402 kW=2.255 kvar=1.294 daily=MyShape17
New Load.646_3_20 Bus1=646.3 Phases=1 Conn=Wye Model=1 kV=2.402 kW=2.255 kvar=1.294 daily=MyShape18
New Load.646_3_21 Bus1=646.3 Phases=1 Conn=Wye Model=1 kV=2.402 kW=2.255 kvar=1.294 daily=MyShape19
New Load.646_3_22 Bus1=646.3 Phases=1 Conn=Wye Model=1 kV=2.402 kW=2.255 kvar=1.294 daily=MyShape20
New Load.646_3_23 Bus1=646.3 Phases=1 Conn=Wye Model=1 kV=2.402 kW=2.255 kvar=1.294 daily=MyShape21
New Load.646_3_24 Bus1=646.3 Phases=1 Conn=Wye Model=1 kV=2.402 kW=2.255 kvar=1.294 daily=MyShape22
New Load.646_3_25 Bus1=646.3 Phases=1 Conn=Wye Model=1 kV=2.402 kW=2.255 kvar=1.294 daily=MyShape23
New Load.646_3_26 Bus1=646.3 Phases=1 Conn=Wye Model=1 kV=2.402 kW=2.255 kvar=1.294 daily=MyShape24
New Load.646_3_27 Bus1=646.3 Phases=1 Conn=Wye Model=1 kV=2.402 kW=2.255 kvar=1.294 daily=MyShape25
New Load.646_3_28 Bus1=646.3 Phases=1 Conn=Wye Model=1 kV=2.402 kW=2.255 kvar=1.294 daily=MyShape26
New Load.646_3_29 Bus1=646.3 Phases=1 Conn=Wye Model=1 kV=2.402 kW=2.255 kvar=1.294 daily=MyShape27
New Load.646_3_30 Bus1=646.3 Phases=1 Conn=Wye Model=1 kV=2.402 kW=2.255 kvar=1.294 daily=MyShape28
New Load.646_3_31 Bus1=646.3 Phases=1 Conn=Wye Model=1 kV=2.402 kW=2.255 kvar=1.294 daily=MyShape29
New Load.646_3_32 Bus1=646.3 Phases=1 Conn=Wye Model=1 kV=2.402 kW=2.255 kvar=1.294 daily=MyShape30
New Load.646_3_33 Bus1=646.3 Phases=1 Conn=Wye Model=1 kV=2.402 kW=2.255 kvar=1.294 daily=MyShape31
New Load.646_3_34 Bus1=646.3 Phases=1 Conn=Wye Model=1 kV=2.402 kW=2.255 kvar=1.294 daily=MyShape32
New Load.646_3_35 Bus1=646.3 Phases=1 Conn=Wye Model=1 kV=2.402 kW=2.255 kvar=1.294 daily=MyShape33
New Load.646_3_36 Bus1=646.3 Phases=1 Conn=Wye Model=1 kV=2.402 kW=2.255 kvar=1.294 daily=MyShape34
New Load.646_3_37 Bus1=646.3 Phases=1 Conn=Wye Model=1 kV=2.402 kW=2.255 kvar=1.294 daily=MyShape35
New Load.646_3_38 Bus1=646.3 Phases=1 Conn=Wye Model=1 kV=2.402 kW=2.255 kvar=1.294 daily=MyShape36
New Load.646_3_39 Bus1=646.3 Phases=1 Conn=Wye Model=1 kV=2.402 kW=2.255 kvar=1.294 daily=MyShape37
New Load.646_3_40 Bus1=646.3 Phases=1 Conn=Wye Model=1 kV=2.402 kW=2.255 kvar=1.294 daily=MyShape38
New Load.646_3_41 Bus1=646.3 Phases=1 Conn=Wye Model=1 kV=2.402 kW=2.255 kvar=1.294 daily=MyShape39
New Load.646_3_42 Bus1=646.3 Phases=1 Conn=Wye Model=1 kV=2.402 kW=2.255 kvar=1.294 daily=MyShape40
New Load.646_3_43 Bus1=646.3 Phases=1 Conn=Wye Model=1 kV=2.402 kW=2.255 kvar=1.294 daily=MyShape41
New Load.646_3_44 Bus1=646.3 Phases=1 Conn=Wye Model=1 kV=2.402 kW=2.255 kvar=1.294 daily=MyShape42
New Load.646_3_45 Bus1=646.3 Phases=1 Conn=Wye Model=1 kV=2.402 kW=2.255 kvar=1.294 daily=MyShape43
New Load.646_3_46 Bus1=646.3 Phases=1 Conn=Wye Model=1 kV=2.402 kW=2.255 kvar=1.294 daily=MyShape44
New Load.646_3_47 Bus1=646.3 Phases=1 Conn=Wye Model=1 kV=2.402 kW=2.255 kvar=1.294 daily=MyShape45
New Load.646_3_48 Bus1=646.3 Phases=1 Conn=Wye Model=1 kV=2.402 kW=2.255 kvar=1.294 daily=MyShape46
New Load.646_3_49 Bus1=646.3 Phases=1 Conn=Wye Model=1 kV=2.402 kW=2.255 kvar=1.294 daily=MyShape47
New Load.646_3_50 Bus1=646.3 Phases=1 Conn=Wye Model=1 kV=2.402 kW=2.255 kvar=1.294 daily=MyShape48
New Load.646_3_51 Bus1=646.3 Phases=1 Conn=Wye Model=1 kV=2.402 kW=2.255 kvar=1.294 daily=MyShape49
New Load.645_2_1 Bus1=645.2 Phases=1 Conn=Wye Model=1 kV=2.402 kW=2.297 kvar=1.689 daily=MyShape50
New Load.645_2_2 Bus1=645.2 Phases=1 Conn=Wye Model=1 kV=2.402 kW=2.297 kvar=1.689 daily=MyShape1
New Load.645_2_3 Bus1=645.2 Phases=1 Conn=Wye Model=1 kV=2.402 kW=2.297 kvar=1.689 daily=MyShape2
New Load.645_2_4 Bus1=645.2 Phases=1 Conn=Wye Model=1 kV=2.402 kW=2.297 kvar=1.689 daily=MyShape3
New Load.645_2_5 Bus1=645.2 Phases=1 Conn=Wye Model=1 kV=2.402 kW=2.297 kvar=1.689 daily=MyShape4
New Load.645_2_6 Bus1=645.2 Phases=1 Conn=Wye Model=1 kV=2.402 kW=2.297 kvar=1.689 daily=MyShape5
New Load.645_2_7 Bus1=645.2 Phases=1 Conn=Wye Model=1 kV=2.402 kW=2.297 kvar=1.689 daily=MyShape6
New Load.645_2_8 Bus1=645.2 Phases=1 Conn=Wye Model=1 kV=2.402 kW=2.297 kvar=1.689 daily=MyShape7
New Load.645_2_9 Bus1=645.2 Phases=1 Conn=Wye Model=1 kV=2.402 kW=2.297 kvar=1.689 daily=MyShape8
New Load.645_2_10 Bus1=645.2 Phases=1 Conn=Wye Model=1 kV=2.402 kW=2.297 kvar=1.689 daily=MyShape9
New Load.645_2_11 Bus1=645.2 Phases=1 Conn=Wye Model=1 kV=2.402 kW=2.297 kvar=1.689 daily=MyShape10
New Load.645_2_12 Bus1=645.2 Phases=1 Conn=Wye Model=1 kV=2.402 kW=2.297 kvar=1.689 daily=MyShape11
New Load.645_2_13 Bus1=645.2 Phases=1 Conn=Wye Model=1 kV=2.402 kW=2.297 kvar=1.689 daily=MyShape12
New Load.645_2_14 Bus1=645.2 Phases=1 Conn=Wye Model=1 kV=2.402 kW=2.297 kvar=1.689 daily=MyShape13
New Load.645_2_15 Bus1=645.2 Phases=1 Conn=Wye Model=1 kV=2.402 kW=2.297 kvar=1.689 daily=MyShape14
New Load.645_2_16 Bus1=645.2 Phases=1 Conn=Wye Model=1 kV=2.402 kW=2.297 kvar=1.689 daily=MyShape15
New Load.645_2_17 Bus1=645.2 Phases=1 Conn=Wye Model=1 kV=2.402 kW=2.297 kvar=1.689 daily=MyShape16
New Load.645_2_18 Bus1=645.2 Phases=1 Conn=Wye Model=1 kV=2.402 kW=2.297 kvar=1.689 daily=MyShape17
New Load.645_2_19 Bus1=645.2 Phases=1 Conn=Wye Model=1 kV=2.402 kW=2.297 kvar=1.689 daily=MyShape18
New Load.645_2_20 Bus1=645.2 Phases=1 Conn=Wye Model=1 kV=2.402 kW=2.297 kvar=1.689 daily=MyShape19
New Load.645_2_21 Bus1=645.2 Phases=1 Conn=Wye Model=1 kV=2.402 kW=2.297 kvar=1.689 daily=MyShape20
New Load.645_2_22 Bus1=645.2 Phases=1 Conn=Wye Model=1 kV=2.402 kW=2.297 kvar=1.689 daily=MyShape21
New Load.645_2_23 Bus1=645.2 Phases=1 Conn=Wye Model=1 kV=2.402 kW=2.297 kvar=1.689 daily=MyShape22
New Load.645_2_24 Bus1=645.2 Phases=1 Conn=Wye Model=1 kV=2.402 kW=2.297 kvar=1.689 daily=MyShape23
New Load.645_2_25 Bus1=645.2 Phases=1 Conn=Wye Model=1 kV=2.402 kW=2.297 kvar=1.689 daily=MyShape24
New Load.645_2_26 Bus1=645.2 Phases=1 Conn=Wye Model=1 kV=2.402 kW=2.297 kvar=1.689 daily=MyShape25
New Load.645_2_27 Bus1=645.2 Phases=1 Conn=Wye Model=1 kV=2.402 kW=2.297 kvar=1.689 daily=MyShape26
New Load.645_2_28 Bus1=645.2 Phases=1 Conn=Wye Model=1 kV=2.402 kW=2.297 kvar=1.689 daily=MyShape27
New Load.645_2_29 Bus1=645.2 Phases=1 Conn=Wye Model=1 kV=2.402 kW=2.297 kvar=1.689 daily=MyShape28
New Load.645_2_30 Bus1=645.2 Phases=1 Conn=Wye Model=1 kV=2.402 kW=2.297 kvar=1.689 daily=MyShape29
New Load.645_2_31 Bus1=645.2 Phases=1 Conn=Wye Model=1 kV=2.402 kW=2.297 kvar=1.689 daily=MyShape30
New Load.645_2_32 Bus1=645.2 Phases=1 Conn=Wye Model=1 kV=2.402 kW=2.297 kvar=1.689 daily=MyShape31
New Load.645_2_33 Bus1=645.2 Phases=1 Conn=Wye Model=1 kV=2.402 kW=2.297 kvar=1.689 daily=MyShape32
New Load.645_2_34 Bus1=645.2 Phases=1 Conn=Wye Model=1 kV=2.402 kW=2.297 kvar=1.689 daily=MyShape33
New Load.645_2_35 Bus1=645.2 Phases=1 Conn=Wye Model=1 kV=2.402 kW=2.297 kvar=1.689 daily=MyShape34
New Load.645_2_36 Bus1=645.2 Phases=1 Conn=Wye Model=1 kV=2.402 kW=2.297 kvar=1.689 daily=MyShape35
New Load.645_2_37 Bus1=645.2 Phases=1 Conn=Wye Model=1 kV=2.402 kW=2.297 kvar=1.689 daily=MyShape36
New Load.645_2_38 Bus1=645.2 Phases=1 Conn=Wye Model=1 kV=2.402 kW=2.297 kvar=1.689 daily=MyShape37
New Load.645_2_39 Bus1=645.2 Phases=1 Conn=Wye Model=1 kV=2.402 kW=2.297 kvar=1.689 daily=MyShape38
New Load.645_2_40 Bus1=645.2 Phases=1 Conn=Wye Model=1 kV=2.402 kW=2.297 kvar=1.689 daily=MyShape39
New Load.645_2_41 Bus1=645.2 Phases=1 Conn=Wye Model=1 kV=2.402 kW=2.297 kvar=1.689 daily=MyShape40
New Load.645_2_42 Bus1=645.2 Phases=1 Conn=Wye Model=1 kV=2.402 kW=2.297 kvar=1.689 daily=MyShape41
New Load.645_2_43 Bus1=645.2 Phases=1 Conn=Wye Model=1 kV=2.402 kW=2.297 kvar=1.689 daily=MyShape42
New Load.645_2_44 Bus1=645.2 Phases=1 Conn=Wye Model=1 kV=2.402 kW=2.297 kvar=1.689 daily=MyShape43
New Load.645_2_45 Bus1=645.2 Phases=1 Conn=Wye Model=1 kV=2.402 kW=2.297 kvar=1.689 daily=MyShape44
New Load.645_2_46 Bus1=645.2 Phases=1 Conn=Wye Model=1 kV=2.402 kW=2.297 kvar=1.689 daily=MyShape45
New Load.645_2_47 Bus1=645.2 Phases=1 Conn=Wye Model=1 kV=2.402 kW=2.297 kvar=1.689 daily=MyShape46
New Load.645_2_48 Bus1=645.2 Phases=1 Conn=Wye Model=1 kV=2.402 kW=2.297 kvar=1.689 daily=MyShape47
New Load.645_2_49 Bus1=645.2 Phases=1 Conn=Wye Model=1 kV=2.402 kW=2.297 kvar=1.689 daily=MyShape48
New Load.645_2_50 Bus1=645.2 Phases=1 Conn=Wye Model=1 kV=2.402 kW=2.297 kvar=1.689 daily=MyShape49
New Load.645_2_51 Bus1=645.2 Phases=1 Conn=Wye Model=1 kV=2.402 kW=2.297 kvar=1.689 daily=MyShape50
New Load.645_2_52 Bus1=645.2 Phases=1 Conn=Wye Model=1 kV=2.402 kW=2.297 kvar=1.689 daily=MyShape1
New Load.645_2_53 Bus1=645.2 Phases=1 Conn=Wye Model=1 kV=2.402 kW=2.297 kvar=1.689 daily=MyShape2
New Load.645_2_54 Bus1=645.2 Phases=1 Conn=Wye Model=1 kV=2.402 kW=2.297 kvar=1.689 daily=MyShape3
New Load.645_2_55 Bus1=645.2 Phases=1 Conn=Wye Model=1 kV=2.402 kW=2.297 kvar=1.689 daily=MyShape4
New Load.645_2_56 Bus1=645.2 Phases=1 Conn=Wye Model=1 kV=2.402 kW=2.297 kvar=1.689 daily=MyShape5
New Load.645_2_57 Bus1=645.2 Phases=1 Conn=Wye Model=1 kV=2.402 kW=2.297 kvar=1.689 daily=MyShape6
New Load.645_2_58 Bus1=645.2 Phases=1 Conn=Wye Model=1 kV=2.402 kW=2.297 kvar=1.689 daily=MyShape7
New Load.645_2_59 Bus1=645.2 Phases=1 Conn=Wye Model=1 kV=2.402 kW=2.297 kvar=1.689 daily=MyShape8
New Load.645_2_60 Bus1=645.2 Phases=1 Conn=Wye Model=1 kV=2.402 kW=2.297 kvar=1.689 daily=MyShape9
New Load.645_2_61 Bus1=645.2 Phases=1 Conn=Wye Model=1 kV=2.402 kW=2.297 kvar=1.689 daily=MyShape10
New Load.645_2_62 Bus1=645.2 Phases=1 Conn=Wye Model=1 kV=2.402 kW=2.297 kvar=1.689 daily=MyShape11
New Load.645_2_63 Bus1=645.2 Phases=1 Conn=Wye Model=1 kV=2.402 kW=2.297 kvar=1.689 daily=MyShape12
New Load.645_2_64 Bus1=645.2 Phases=1 Conn=Wye Model=1 kV=2.402 kW=2.297 kvar=1.689 daily=MyShape13
New Load.645_2_65 Bus1=645.2 Phases=1 Conn=Wye Model=1 kV=2.402 kW=2.297 kvar=1.689 daily=MyShape14
New Load.645_2_66 Bus1=645.2 Phases=1 Conn=Wye Model=1 kV=2.402 kW=2.297 kvar=1.689 daily=MyShape15
New Load.645_2_67 Bus1=645.2 Phases=1 Conn=Wye Model=1 kV=2.402 kW=2.297 kvar=1.689 daily=MyShape16
New Load.645_2_68 Bus1=645.2 Phases=1 Conn=Wye Model=1 kV=2.402 kW=2.297 kvar=1.689 daily=MyShape17
New Load.645_2_69 Bus1=645.2 Phases=1 Conn=Wye Model=1 kV=2.402 kW=2.297 kvar=1.689 daily=MyShape18
New Load.645_2_70 Bus1=645.2 Phases=1 Conn=Wye Model=1 kV=2.402 kW=2.297 kvar=1.689 daily=MyShape19
New Load.645_2_71 Bus1=645.2 Phases=1 Conn=Wye Model=1 kV=2.402 kW=2.297 kvar=1.689 daily=MyShape20
New Load.645_2_72 Bus1=645.2 Phases=1 Conn=Wye Model=1 kV=2.402 kW=2.297 kvar=1.689 daily=MyShape21
New Load.645_2_73 Bus1=645.2 Phases=1 Conn=Wye Model=1 kV=2.402 kW=2.297 kvar=1.689 daily=MyShape22
New Load.645_2_74 Bus1=645.2 Phases=1 Conn=Wye Model=1 kV=2.402 kW=2.297 kvar=1.689 daily=MyShape23
New Load.670_1_1 Bus1=670.1 Phases=1 Conn=Wye Model=1 kV=2.402 kW=8.500 kvar=5.000 daily=MyShape24
New Load.670_1_2 Bus1=670.1 Phases=1 Conn=Wye Model=1 kV=2.402 kW=8.500 kvar=5.000 daily=MyShape25
New Load.670_2_1 Bus1=670.2 Phases=1 Conn=Wye Model=1 kV=2.402 kW=7.333 kvar=4.222 daily=MyShape26
New Load.670_2_2 Bus1=670.2 Phases=1 Conn=Wye Model=1 kV=2.402 kW=7.333 kvar=4.222 daily=MyShape27
New Load.670_2_3 Bus1=670.2 Phases=1 Conn=Wye Model=1 kV=2.402 kW=7.333 kvar=4.222 daily=MyShape28
New Load.670_2_4 Bus1=670.2 Phases=1 Conn=Wye Model=1 kV=2.402 kW=7.333 kvar=4.222 daily=MyShape29
New Load.670_2_5 Bus1=670.2 Phases=1 Conn=Wye Model=1 kV=2.402 kW=7.333 kvar=4.222 daily=MyShape30
New Load.670_2_6 Bus1=670.2 Phases=1 Conn=Wye Model=1 kV=2.402 kW=7.333 kvar=4.222 daily=MyShape31
New Load.670_2_7 Bus1=670.2 Phases=1 Conn=Wye Model=1 kV=2.402 kW=7.333 kvar=4.222 daily=MyShape32
New Load.670_2_8 Bus1=670.2 Phases=1 Conn=Wye Model=1 kV=2.402 kW=7.333 kvar=4.222 daily=MyShape33
New Load.670_2_9 Bus1=670.2 Phases=1 Conn=Wye Model=1 kV=2.402 kW=7.333 kvar=4.222 daily=MyShape34
New Load.670_3_1 Bus1=670.3 Phases=1 Conn=Wye Model=1 kV=2.402 kW=5.318 kvar=3.091 daily=MyShape35
New Load.670_3_2 Bus1=670.3 Phases=1 Conn=Wye Model=1 kV=2.402 kW=5.318 kvar=3.091 daily=MyShape36
New Load.670_3_3 Bus1=670.3 Phases=1 Conn=Wye Model=1 kV=2.402 kW=5.318 kvar=3.091 daily=MyShape37
New Load.670_3_4 Bus1=670.3 Phases=1 Conn=Wye Model=1 kV=2.402 kW=5.318 kvar=3.091 daily=MyShape38
New Load.670_3_5 Bus1=670.3 Phases=1 Conn=Wye Model=1 kV=2.402 kW=5.318 kvar=3.091 daily=MyShape39
New Load.670_3_6 Bus1=670.3 Phases=1 Conn=Wye Model=1 kV=2.402 kW=5.318 kvar=3.091 daily=MyShape40
New Load.670_3_7 Bus1=670.3 Phases=1 Conn=Wye Model=1 kV=2.402 kW=5.318 kvar=3.091 daily=MyShape41
New Load.670_3_8 Bus1=670.3 Phases=1 Conn=Wye Model=1 kV=2.402 kW=5.318 kvar=3.091 daily=MyShape42
New Load.670_3_9 Bus1=670.3 Phases=1 Conn=Wye Model=1 kV=2.402 kW=5.318 kvar=3.091 daily=MyShape43
New Load.670_3_10 Bus1=670.3 Phases=1 Conn=Wye Model=1 kV=2.402 kW=5.318 kvar=3.091 daily=MyShape44
New Load.670_3_11 Bus1=670.3 Phases=1 Conn=Wye Model=1 kV=2.402 kW=5.318 kvar=3.091 daily=MyShape45
New Load.670_3_12 Bus1=670.3 Phases=1 Conn=Wye Model=1 kV=2.402 kW=5.318 kvar=3.091 daily=MyShape46
New Load.670_3_13 Bus1=670.3 Phases=1 Conn=Wye Model=1 kV=2.402 kW=5.318 kvar=3.091 daily=MyShape47
New Load.670_3_14 Bus1=670.3 Phases=1 Conn=Wye Model=1 kV=2.402 kW=5.318 kvar=3.091 daily=MyShape48
New Load.670_3_15 Bus1=670.3 Phases=1 Conn=Wye Model=1 kV=2.402 kW=5.318 kvar=3.091 daily=MyShape49
New Load.670_3_16 Bus1=670.3 Phases=1 Conn=Wye Model=1 kV=2.402 kW=5.318 kvar=3.091 daily=MyShape50
...
