data/13Bus-Modificado/PVSystem13Bus.dss
New PVSystem.PV_646_2_1 phases=1 bus1=646.2 kV=2.402 kVA=3.594 irrad=0.8 Pmpp=3.594
~ temperature=25 PF=1 effcurve=Myeff P-TCurve=MyPvsT
~ Daily=MyShapePV1 TDaily=MyTemp

New PVSystem.PV_646_2_2 phases=1 bus1=646.2 kV=2.402 kVA=3.594 irrad=0.8 Pmpp=3.594
~ temperature=25 PF=1 effcurve=Myeff P-TCurve=MyPvsT
~ Daily=MyShapePV2 TDaily=MyTemp

New PVSystem.PV_646_2_3 phases=1 bus1=646.2 kV=2.402 kVA=3.594 irrad=0.8 Pmpp=3.594
~ temperature=25 PF=1 effcurve=Myeff P-TCurve=MyPvsT
~ Daily=MyShapePV3 TDaily=MyTemp

New PVSystem.PV_646_2_4 phases=1 bus1=646.2 kV=2.402 kVA=3.594 irrad=0.8 Pmpp=3.594
~ temperature=25 PF=1 effcurve=Myeff P-TCurve=MyPvsT
~ Daily=MyShapePV4 TDaily=MyTemp

New PVSystem.PV_646_2_5 phases=1 bus1=646.2 kV=2.402 kVA=3.594 irrad=0.8 Pmpp=3.594
~ temperature=25 PF=1 effcurve=Myeff P-TCurve=MyPvsT
~ Daily=MyShapePV5 TDaily=MyTemp

New PVSystem.PV_646_2_6 phases=1 bus1=646.2 kV=2.402 kVA=3.594 irrad=0.8 Pmpp=3.594
~ temperature=25 PF=1 effcurve=Myeff P-TCurve=MyPvsT
~ Daily=MyShapePV6 TDaily=MyTemp

New PVSystem.PV_646_2_7 phases=1 bus1=646.2 kV=2.402 kVA=3.594 irrad=0.8 Pmpp=3.594
~ temperature=25 PF=1 effcurve=Myeff P-TCurve=MyPvsT
~ Daily=MyShapePV7 TDaily=MyTemp

New PVSystem.PV_646_2_8 phases=1 bus1=646.2 kV=2.402 kVA=3.594 irrad=0.8 Pmpp=3.594
~ temperature=25 PF=1 effcurve=Myeff P-TCurve=MyPvsT
~ Daily=MyShapePV8 TDaily=MyTemp

New PVSystem.PV_646_2_9 phases=1 bus1=646.2 kV=2.402 kVA=3.594 irrad=0.8 Pmpp=3.594
~ temperature=25 PF=1 effcurve=Myeff P-TCurve=MyPvsT
~ Daily=MyShapePV9 TDaily=MyTemp

New PVSystem.PV_646_2_10 phases=1 bus1=646.2 kV=2.402 kVA=3.594 irrad=0.8 Pmpp=3.594
~ temperature=25 PF=1 effcurve=Myeff P-TCurve=MyPvsT
~ Daily=MyShapePV10 TDaily=MyTemp

New PVSystem.PV_646_2_11 phases=1 bus1=646.2 kV=2.402 kVA=3.594 irrad=0.8 Pmpp=3.594
~ temperature=25 PF=1 effcurve=Myeff P-TCurve=MyPvsT
~ Daily=MyShapePV11 TDaily=MyTemp

New PVSystem.PV_646_2_12 phases=1 bus1=646.2 kV=2.402 kVA=3.594 irrad=0.8 Pmpp=3.594
~ temperature=25 PF=1 effcurve=Myeff P-TCurve=MyPvsT
~ Daily=MyShapePV12 TDaily=MyTemp

New PVSystem.PV_646_2_13 phases=1 bus1=646.2 kV=2.402 kVA=3.594 irrad=0.8 Pmpp=3.594
~ temperature=25 PF=1 effcurve=Myeff P-TCurve=MyPvsT
~ Daily=MyShapePV13 TDaily=MyTemp

New PVSystem.PV_646_2_14 phases=1 bus1=646.2 kV=2.402 kVA=3.594 irrad=0.8 Pmpp=3.594
~ temperature=25 PF=1 effcurve=Myeff P-TCurve=MyPvsT
~ Daily=MyShapePV14 TDaily=MyTemp

New PVSystem.PV_646_2_15 phases=1 bus1=646.2 kV=2.402 kVA=3.594 irrad=0.8 Pmpp=3.594
~ temperature=25 PF=1 effcurve=Myeff P-TCurve=MyPvsT
~ Daily=MyShapePV15 TDaily=MyTemp

New PVSystem.PV_646_2_16 phases=1 bus1=646.2 kV=2.402 kVA=3.594 irrad=0.8 Pmpp=3.594
~ temperature=25 PF=1 effcurve=Myeff P-TCurve=MyPvsT
~ Daily=MyShapePV16 TDaily=MyTemp

New PVSystem.PV_646_2_17 phases=1 bus1=646.2 kV=2.402 kVA=3.594 irrad=0.8 Pmpp=3.594
~ temperature=25 PF=1 effcurve=Myeff P-TCurve=MyPvsT
~ Daily=MyShapePV17 TDaily=MyTemp

New PVSystem.PV_646_2_18 phases=1 bus1=646.2 kV=2.402 kVA=3.594 irrad=0.8 Pmpp=3.594
~ temperature=25 PF=1 effcurve=Myeff P-TCurve=MyPvsT
~ Daily=MyShapePV18 TDaily=MyTemp

New PVSystem.PV_646_2_19 phases=1 bus1=646.2 kV=2.402 kVA=3.594 irrad=0.8 Pmpp=3.594
~ temperature=25 PF=1 effcurve=Myeff P-TCurve=MyPvsT
~ Daily=MyShapePV19 TDaily=MyTemp

New PVSystem.PV_646_2_20 phases=1 bus1=646.2 kV=2.402 kVA=3.594 irrad=0.8 Pmpp=3.594
~ temperature=25 PF=1 effcurve=Myeff P-TCurve=MyPvsT
~ Daily=MyShapePV20 TDaily=MyTemp

New PVSystem.PV_646_2_21 phases=1 bus1=646.2 kV=2.402 kVA=3.594 irrad=0.8 Pmpp=3.594
~ temperature=25 PF=1 effcurve=Myeff P-TCurve=MyPvsT
~ Daily=MyShapePV21 TDaily=MyTemp

New PVSystem.PV_646_2_22 phases=1 bus1=646.2 kV=2.402 kVA=3.594 irrad=0.8 Pmpp=3.594
~ temperature=25 PF=1 effcurve=Myeff P-TCurve=MyPvsT
~ Daily=MyShapePV22 TDaily=MyTemp

New PVSystem.PV_646_2_23 phases=1 bus1=646.2 kV=2.402 kVA=3.594 irrad=0.8 Pmpp=3.594
~ temperature=25 PF=1 effcurve=Myeff P-TCurve=MyPvsT
~ Daily=MyShapePV23 TDaily=MyTemp

New PVSystem.PV_646_2_24 phases=1 bus1=646.2 kV=2.402 kVA=3.594 irrad=0.8 Pmpp=3.594
~ temperature=25 PF=1 effcurve=Myeff P-TCurve=MyPvsT
~ Daily=MyShapePV24 TDaily=MyTemp

New PVSystem.PV_646_2_25 phases=1 bus1=646.2 kV=2.402 kVA=3.594 irrad=0.8 Pmpp=3.594
~ temperature=25 PF=1 effcurve=Myeff P-TCurve=MyPvsT
~ Daily=MyShapePV25 TDaily=MyTemp

New PVSystem.PV_646_2_26 phases=1 bus1=646.2 kV=2.402 kVA=3.594 irrad=0.8 Pmpp=3.594
~ temperature=25 PF=1 effcurve=Myeff P-TCurve=MyPvsT
~ Daily=MyShapePV26 TDaily=MyTemp

New PVSystem.PV_646_2_27 phases=1 bus1=646.2 kV=2.402 kVA=3.594 irrad=0.8 Pmpp=3.594
~ temperature=25 PF=1 effcurve=Myeff P-TCurve=MyPvsT
~ Daily=MyShapePV27 TDaily=MyTemp

New PVSystem.PV_646_2_28 phases=1 bus1=646.2 kV=2.402 kVA=3.594 irrad=0.8 Pmpp=3.594
~ temperature=25 PF=1 effcurve=Myeff P-TCurve=MyPvsT
~ Daily=MyShapePV28 TDaily=MyTemp

New PVSystem.PV_646_2_29 phases=1 bus1=646.2 kV=2.402 kVA=3.594 irrad=0.8 Pmpp=3.594
~ temperature=25 PF=1 effcurve=Myeff P-TCurve=MyPvsT
~ Daily=MyShapePV29 TDaily=MyTemp

New PVSystem.PV_646_2_30 phases=1 bus1=646.2 kV=2.402 kVA=3.594 irrad=0.8 Pmpp=3.594
~ temperature=25 PF=1 effcurve=Myeff P-TCurve=MyPvsT
~ Daily=MyShapePV30 TDaily=MyTemp

New PVSystem.PV_646_2_31 phases=1 bus1=646.2 kV=2.402 kVA=3.594 irrad=0.8 Pmpp=3.594
~ temperature=25 PF=1 effcurve=Myeff P-TCurve=MyPvsT
~ Daily=MyShapePV31 TDaily=MyTemp

New PVSystem.PV_646_2_32 phases=1 bus1=646.2 kV=2.402 kVA=3.594 irrad=0.8 Pmpp=3.594
~ temperature=25 PF=1 effcurve=Myeff P-TCurve=MyPvsT
~ Daily=MyShapePV32 TDaily=MyTemp

New PVSystem.PV_646_2_33 phases=1 bus1=646.2 kV=2.402 kVA=3.594 irrad=0.8 Pmpp=3.594
~ temperature=25 PF=1 effcurve=Myeff P-TCurve=MyPvsT
~ Daily=MyShapePV33 TDaily=MyTemp

New PVSystem.PV_646_2_34 phases=1 bus1=646.2 kV=2.402 kVA=3.594 irrad=0.8 Pmpp=3.594
~ temperature=25 PF=1 effcurve=Myeff P-TCurve=MyPvsT
~ Daily=MyShapePV34 TDaily=MyTemp

New PVSystem.PV_646_2_35 phases=1 bus1=646.2 kV=2.402 kVA=3.594 irrad=0.8 Pmpp=3.594
~ temperature=25 PF=1 effcurve=Myeff P-TCurve=MyPvsT
~ Daily=MyShapePV35 TDaily=MyTemp

New PVSystem.PV_646_2_36 phases=1 bus1=646.2 kV=2.402 kVA=3.594 irrad=0.8 Pmpp=3.594
~ temperature=25 PF=1 effcurve=Myeff P-TCurve=MyPvsT
~ Daily=MyShapePV36 TDaily=MyTemp

New PVSystem.PV_646_2_37 phases=1 bus1=646.2 kV=2.402 kVA=3.594 irrad=0.8 Pmpp=3.594
~ temperature=25 PF=1 effcurve=Myeff P-TCurve=MyPvsT
~ Daily=MyShapePV37 TDaily=MyTemp

New PVSystem.PV_646_2_38 phases=1 bus1=646.2 kV=2.402 kVA=3.594 irrad=0.8 Pmpp=3.594
~ temperature=25 PF=1 effcurve=Myeff P-TCurve=MyPvsT
~ Daily=MyShapePV38 TDaily=MyTemp

New PVSystem.PV_646_2_39 phases=1 bus1=646.2 kV=2.402 kVA=3.594 irrad=0.8 Pmpp=3.594
~ temperature=25 PF=1 effcurve=Myeff P-TCurve=MyPvsT
~ Daily=MyShapePV39 TDaily=MyTemp

New PVSystem.PV_646_2_40 phases=1 bus1=646.2 kV=2.402 kVA=3.594 irrad=0.8 Pmpp=3.594
~ temperature=25 PF=1 effcurve=Myeff P-TCurve=MyPvsT
~ Daily=MyShapePV40 TDaily=MyTemp

New PVSystem.PV_646_2_41 phases=1 bus1=646.2 kV=2.402 kVA=3.594 irrad=0.8 Pmpp=3.594
~ temperature=25 PF=1 effcurve=Myeff P-TCurve=MyPvsT
~ Daily=MyShapePV41 TDaily=MyTemp

New PVSystem.PV_646_2_42 phases=1 bus1=646.2 kV=2.402 kVA=3.594 irrad=0.8 Pmpp=3.594
~ temperature=25 PF=1 effcurve=Myeff P-TCurve=MyPvsT
~ Daily=MyShapePV42 TDaily=MyTemp

New PVSystem.PV_646_2_43 phases=1 bus1=646.2 kV=2.402 kVA=3.594 irrad=0.8 Pmpp=3.594
~ temperature=25 PF=1 effcurve=Myeff P-TCurve=MyPvsT
~ Daily=MyShapePV43 TDaily=MyTemp

New PVSystem.PV_646_2_44 phases=1 bus1=646.2 kV=2.402 kVA=3.594 irrad=0.8 Pmpp=3.594
~ temperature=25 PF=1 effcurve=Myeff P-TCurve=MyPvsT
~ Daily=MyShapePV44 TDaily=MyTemp

New PVSystem.PV_646_2_45 phases=1 bus1=646.2 kV=2.402 kVA=3.594 irrad=0.8 Pmpp=3.594
~ temperature=25 PF=1 effcurve=Myeff P-TCurve=MyPvsT
~ Daily=MyShapePV45 TDaily=MyTemp

New PVSystem.PV_646_2_46 phases=1 bus1=646.2 kV=2.402 kVA=3.594 irrad=0.8 Pmpp=3.594
~ temperature=25 PF=1 effcurve=Myeff P-TCurve=MyPvsT
~ Daily=MyShapePV46 TDaily=MyTemp

New PVSystem.PV_646_2_47 phases=1 bus1=646.2 kV=2.402 kVA=3.594 irrad=0.8 Pmpp=3.594
~ temperature=25 PF=1 effcurve=Myeff P-TCurve=MyPvsT
~ Daily=MyShapePV47 TDaily=MyTemp

New PVSystem.PV_646_2_48 phases=1 bus1=646.2 kV=2.402 kVA=3.594 irrad=0.8 Pmpp=3.594
~ temperature=25 PF=1 effcurve=Myeff P-TCurve=MyPvsT
~ Daily=MyShapePV48 TDaily=MyTemp

New PVSystem.PV_646_3_1 phases=1 bus1=646.3 kV=2.402 kVA=3.382 irrad=0.8 Pmpp=3.382
~ temperature=25 PF=1 effcurve=Myeff P-TCurve=MyPvsT
~ Daily=MyShapePV49 TDaily=MyTemp

New PVSystem.PV_646_3_2 phases=1 bus1=646.3 kV=2.402 kVA=3.382 irrad=0.8 Pmpp=3.382
~ temperature=25 PF=1 effcurve=Myeff P-TCurve=MyPvsT
~ Daily=MyShapePV50 TDaily=MyTemp

New PVSystem.PV_646_3_3 phases=1 bus1=646.3 kV=2.402 kVA=3.382 irrad=0.8 Pmpp=3.382
~ temperature=25 PF=1 effcurve=Myeff P-TCurve=MyPvsT
~ Daily=MyShapePV1 TDaily=MyTemp

New PVSystem.PV_646_3_4 phases=1 bus1=646.3 kV=2.402 kVA=3.382 irrad=0.8 Pmpp=3.382
~ temperature=25 PF=1 effcurve=Myeff P-TCurve=MyPvsT
~ Daily=MyShapePV2 TDaily=MyTemp

New PVSystem.PV_646_3_5 phases=1 bus1=646.3 kV=2.402 kVA=3.382 irrad=0.8 Pmpp=3.382
~ temperature=25 PF=1 effcurve=Myeff P-TCurve=MyPvsT
~ Daily=MyShapePV3 TDaily=MyTemp

New PVSystem.PV_646_3_6 phases=1 bus1=646.3 kV=2.402 kVA=3.382 irrad=0.8 Pmpp=3.382
~ temperature=25 PF=1 effcurve=Myeff P-TCurve=MyPvsT
~ Daily=MyShapePV4 TDaily=MyTemp

New PVSystem.PV_646_3_7 phases=1 bus1=646.3 kV=2.402 kVA=3.382 irrad=0.8 Pmpp=3.382
~ temperature=25 PF=1 effcurve=Myeff P-TCurve=MyPvsT
~ Daily=MyShapePV5 TDaily=MyTemp

New PVSystem.PV_646_3_8 phases=1 bus1=646.3 kV=2.402 kVA=3.382 irrad=0.8 Pmpp=3.382
~ temperature=25 PF=1 effcurve=Myeff P-TCurve=MyPvsT
~ Daily=MyShapePV6 TDaily=MyTemp

New PVSystem.PV_646_3_9 phases=1 bus1=646.3 kV=2.402 kVA=3.382 irrad=0.8 Pmpp=3.382
~ temperature=25 PF=1 effcurve=Myeff P-TCurve=MyPvsT
~ Daily=MyShapePV7 TDaily=MyTemp

New PVSystem.PV_646_3_10 phases=1 bus1=646.3 kV=2.402 kVA=3.382 irrad=0.8 Pmpp=3.382
~ temperature=25 PF=1 effcurve=Myeff P-TCurve=MyPvsT
~ Daily=MyShapePV8 TDaily=MyTemp

New PVSystem.PV_646_3_11 phases=1 bus1=646.3 kV=2.402 kVA=3.382 irrad=0.8 Pmpp=3.382
~ temperature=25 PF=1 effcurve=Myeff P-TCurve=MyPvsT
~ Daily=MyShapePV9 TDaily=MyTemp

New PVSystem.PV_646_3_12 phases=1 bus1=646.3 kV=2.402 kVA=3.382 irrad=0.8 Pmpp=3.382
~ temperature=25 PF=1 effcurve=Myeff P-TCurve=MyPvsT
~ Daily=MyShapePV10 TDaily=MyTemp

New PVSystem.PV_646_3_13 phases=1 bus1=646.3 kV=2.402 kVA=3.382 irrad=0.8 Pmpp=3.382
~ temperature=25 PF=1 effcurve=Myeff P-TCurve=MyPvsT
~ Daily=MyShapePV11 TDaily=MyTemp

New PVSystem.PV_646_3_14 phases=1 bus1=646.3 kV=2.402 kVA=3.382 irrad=0.8 Pmpp=3.382
~ temperature=25 PF=1 effcurve=Myeff P-TCurve=MyPvsT
~ Daily=MyShapePV12 TDaily=MyTemp

New PVSystem.PV_646_3_15 phases=1 bus1=646.3 kV=2.402 kVA=3.382 irrad=0.8 Pmpp=3.382
~ temperature=25 PF=1 effcurve=Myeff P-TCurve=MyPvsT
~ Daily=MyShapePV13 TDaily=MyTemp

New PVSystem.PV_646_3_16 phases=1 bus1=646.3 kV=2.402 kVA=3.382 irrad=0.8 Pmpp=3.382
~ temperature=25 PF=1 effcurve=Myeff P-TCurve=MyPvsT
~ Daily=MyShapePV14 TDaily=MyTemp

New PVSystem.PV_646_3_17 phases=1 bus1=646.3 kV=2.402 kVA=3.382 irrad=0.8 Pmpp=3.382
~ temperature=25 PF=1 effcurve=Myeff P-TCurve=MyPvsT
~ Daily=MyShapePV15 TDaily=MyTemp

New PVSystem.PV_646_3_18 phases=1 bus1=646.3 kV=2.402 kVA=3.382 irrad=0.8 Pmpp=3.382
~ temperature=25 PF=1 effcurve=Myeff P-TCurve=MyPvsT
~ Daily=MyShapePV16 TDaily=MyTemp

New PVSystem.PV_646_3_19 phases=1 bus1=646.3 kV=2.402 kVA=3.382 irrad=0.8 Pmpp=3.382
~ temperature=25 PF=1 effcurve=Myeff P-TCurve=MyPvsT
~ Daily=MyShapePV17 TDaily=MyTemp

New PVSystem.PV_646_3_20 phases=1 bus1=646.3 kV=2.402 kVA=3.382 irrad=0.8 Pmpp=3.382
~ temperature=25 PF=1 effcurve=Myeff P-TCurve=MyPvsT
~ Daily=MyShapePV18 TDaily=MyTemp

New PVSystem.PV_646_3_21 phases=1 bus1=646.3 kV=2.402 kVA=3.382 irrad=0.8 Pmpp=3.382
~ temperature=25 PF=1 effcurve=Myeff P-TCurve=MyPvsT
~ Daily=MyShapePV19 TDaily=MyTemp

New PVSystem.PV_646_3_22 phases=1 bus1=646.3 kV=2.402 kVA=3.382 irrad=0.8 Pmpp=3.382
~ temperature=25 PF=1 effcurve=Myeff P-TCurve=MyPvsT
~ Daily=MyShapePV20 TDaily=MyTemp

New PVSystem.PV_646_3_23 phases=1 bus1=646.3 kV=2.402 kVA=3.382 irrad=0.8 Pmpp=3.382
~ temperature=25 PF=1 effcurve=Myeff P-TCurve=MyPvsT
~ Daily=MyShapePV21 TDaily=MyTemp

New PVSystem.PV_646_3_24 phases=1 bus1=646.3 kV=2.402 kVA=3.382 irrad=0.8 Pmpp=3.382
~ temperature=25 PF=1 effcurve=Myeff P-TCurve=MyPvsT
~ Daily=MyShapePV22 TDaily=MyTemp

New PVSystem.PV_646_3_25 phases=1 bus1=646.3 kV=2.402 kVA=3.382 irrad=0.8 Pmpp=3.382
~ temperature=25 PF=1 effcurve=Myeff P-TCurve=MyPvsT
~ Daily=MyShapePV23 TDaily=MyTemp

New PVSystem.PV_646_3_26 phases=1 bus1=646.3 kV=2.402 kVA=3.382 irrad=0.8 Pmpp=3.382
~ temperature=25 PF=1 effcurve=Myeff P-TCurve=MyPvsT
~ Daily=MyShapePV24 TDaily=MyTemp

New PVSystem.PV_646_3_27 phases=1 bus1=646.3 kV=2.402 kVA=3.382 irrad=0.8 Pmpp=3.382
~ temperature=25 PF=1 effcurve=Myeff P-TCurve=MyPvsT
~ Daily=MyShapePV25 TDaily=MyTemp

New PVSystem.PV_646_3_28 phases=1 bus1=646.3 kV=2.402 kVA=3.382 irrad=0.8 Pmpp=3.382
~ temperature=25 PF=1 effcurve=Myeff P-TCurve=MyPvsT
~ Daily=MyShapePV26 TDaily=MyTemp

New PVSystem.PV_646_3_29 phases=1 bus1=646.3 kV=2.402 kVA=3.382 irrad=0.8 Pmpp=3.382
~ temperature=25 PF=1 effcurve=Myeff P-TCurve=MyPvsT
~ Daily=MyShapePV27 TDaily=MyTemp

New PVSystem.PV_646_3_30 phases=1 bus1=646.3 kV=2.402 kVA=3.382 irrad=0.8 Pmpp=3.382
~ temperature=25 PF=1 effcurve=Myeff P-TCurve=MyPvsT
~ Daily=MyShapePV28 TDaily=MyTemp

New PVSystem.PV_646_3_31 phases=1 bus1=646.3 kV=2.402 kVA=3.382 irrad=0.8 Pmpp=3.382
~ temperature=25 PF=1 effcurve=Myeff P-TCurve=MyPvsT
~ Daily=MyShapePV29 TDaily=MyTemp

New PVSystem.PV_646_3_32 phases=1 bus1=646.3 kV=2.402 kVA=3.382 irrad=0.8 Pmpp=3.382
~ temperature=25 PF=1 effcurve=Myeff P-TCurve=MyPvsT
~ Daily=MyShapePV30 TDaily=MyTemp

New PVSystem.PV_646_3_33 phases=1 bus1=646.3 kV=2.402 kVA=3.382 irrad=0.8 Pmpp=3.382
~ temperature=25 PF=1 effcurve=Myeff P-TCurve=MyPvsT
~ Daily=MyShapePV31 TDaily=MyTemp

New PVSystem.PV_646_3_34 phases=1 bus1=646.3 kV=2.402 kVA=3.382 irrad=0.8 Pmpp=3.382
~ temperature=25 PF=1 effcurve=Myeff P-TCurve=MyPvsT
~ Daily=MyShapePV32 TDaily=MyTemp

New PVSystem.PV_646_3_35 phases=1 bus1=646.3 kV=2.402 kVA=3.382 irrad=0.8 Pmpp=3.382
~ temperature=25 PF=1 effcurve=Myeff P-TCurve=MyPvsT
~ Daily=MyShapePV33 TDaily=MyTemp

New PVSystem.PV_646_3_36 phases=1 bus1=646.3 kV=2.402 kVA=3.382 irrad=0.8 Pmpp=3.382
~ temperature=25 PF=1 effcurve=Myeff P-TCurve=MyPvsT
~ Daily=MyShapePV34 TDaily=MyTemp

New PVSystem.PV_646_3_37 phases=1 bus1=646.3 kV=2.402 kVA=3.382 irrad=0.8 Pmpp=3.382
~ temperature=25 PF=1 effcurve=Myeff P-TCurve=MyPvsT
~ Daily=MyShapePV35 TDaily=MyTemp

New PVSystem.PV_646_3_38 phases=1 bus1=646.3 kV=2.402 kVA=3.382 irrad=0.8 Pmpp=3.382
~ temperature=25 PF=1 effcurve=Myeff P-TCurve=MyPvsT
~ Daily=MyShapePV36 TDaily=MyTemp

New PVSystem.PV_646_3_39 phases=1 bus1=646.3 kV=2.402 kVA=3.382 irrad=0.8 Pmpp=3.382
~ temperature=25 PF=1 effcurve=Myeff P-TCurve=MyPvsT
~ Daily=MyShapePV37 TDaily=MyTemp

New PVSystem.PV_646_3_40 phases=1 bus1=646.3 kV=2.402 kVA=3.382 irrad=0.8 Pmpp=3.382
~ temperature=25 PF=1 effcurve=Myeff P-TCurve=MyPvsT
~ Daily=MyShapePV38 TDaily=MyTemp

New PVSystem.PV_646_3_41 phases=1 bus1=646.3 kV=2.402 kVA=3.382 irrad=0.8 Pmpp=3.382
~ temperature=25 PF=1 effcurve=Myeff P-TCurve=MyPvsT
~ Daily=MyShapePV39 TDaily=MyTemp

New PVSystem.PV_646_3_42 phases=1 bus1=646.3 kV=2.402 kVA=3.382 irrad=0.8 Pmpp=3.382
~ temperature=25 PF=1 effcurve=Myeff P-TCurve=MyPvsT
~ Daily=MyShapePV40 TDaily=MyTemp

New PVSystem.PV_646_3_43 phases=1 bus1=646.3 kV=2.402 kVA=3.382 irrad=0.8 Pmpp=3.382
~ temperature=25 PF=1 effcurve=Myeff P-TCurve=MyPvsT
~ Daily=MyShapePV41 TDaily=MyTemp

New PVSystem.PV_646_3_44 phases=1 bus1=646.3 kV=2.402 kVA=3.382 irrad=0.8 Pmpp=3.382
~ temperature=25 PF=1 effcurve=Myeff P-TCurve=MyPvsT
~ Daily=MyShapePV42 TDaily=MyTemp

New PVSystem.PV_646_3_45 phases=1 bus1=646.3 kV=2.402 kVA=3.382 irrad=0.8 Pmpp=3.382
~ temperature=25 PF=1 effcurve=Myeff P-TCurve=MyPvsT
~ Daily=MyShapePV43 TDaily=MyTemp

New PVSystem.PV_646_3_46 phases=1 bus1=646.3 kV=2.402 kVA=3.382 irrad=0.8 Pmpp=3.382
~ temperature=25 PF=1 effcurve=Myeff P-TCurve=MyPvsT
~ Daily=MyShapePV44 TDaily=MyTemp

New PVSystem.PV_646_3_47 phases=1 bus1=646.3 kV=2.402 kVA=3.382 irrad=0.8 Pmpp=3.382
~ temperature=25 PF=1 effcurve=Myeff P-TCurve=MyPvsT
~ Daily=MyShapePV45 TDaily=MyTemp

New PVSystem.PV_646_3_48 phases=1 bus1=646.3 kV=2.402 kVA=3.382 irrad=0.8 Pmpp=3.382
~ temperature=25 PF=1 effcurve=Myeff P-TCurve=MyPvsT
~ Daily=MyShapePV46 TDaily=MyTemp

New PVSystem.PV_646_3_49 phases=1 bus1=646.3 kV=2.402 kVA=3.382 irrad=0.8 Pmpp=3.382
~ temperature=25 PF=1 effcurve=Myeff P-TCurve=MyPvsT
~ Daily=MyShapePV47 TDaily=MyTemp

New PVSystem.PV_646_3_50 phases=1 bus1=646.3 kV=2.402 kVA=3.382 irrad=0.8 Pmpp=3.382
~ temperature=25 PF=1 effcurve=Myeff P-TCurve=MyPvsT
~ Daily=MyShapePV48 TDaily=MyTemp

New PVSystem.PV_646_3_51 phases=1 bus1=646.3 kV=2.402 kVA=3.382 irrad=0.8 Pmpp=3.382
~ temperature=25 PF=1 effcurve=Myeff P-TCurve=MyPvsT
~ Daily=MyShapePV49 TDaily=MyTemp

New PVSystem.PV_645_2_1 phases=1 bus1=645.2 kV=2.402 kVA=3.446 irrad=0.8 Pmpp=3.446
~ temperature=25 PF=1 effcurve=Myeff P-TCurve=MyPvsT
~ Daily=MyShapePV50 TDaily=MyTemp

New PVSystem.PV_645_2_2 phases=1 bus1=645.2 kV=2.402 kVA=3.446 irrad=0.8 Pmpp=3.446
~ temperature=25 PF=1 effcurve=Myeff P-TCurve=MyPvsT
~ Daily=MyShapePV1 TDaily=MyTemp

New PVSystem.PV_645_2_3 phases=1 bus1=645.2 kV=2.402 kVA=3.446 irrad=0.8 Pmpp=3.446
~ temperature=25 PF=1 effcurve=Myeff P-TCurve=MyPvsT
~ Daily=MyShapePV2 TDaily=MyTemp

New PVSystem.PV_645_2_4 phases=1 bus1=645.2 kV=2.402 kVA=3.446 irrad=0.8 Pmpp=3.446
~ temperature=25 PF=1 effcurve=Myeff P-TCurve=MyPvsT
~ Daily=MyShapePV3 TDaily=MyTemp

New PVSystem.PV_645_2_5 phases=1 bus1=645.2 kV=2.402 kVA=3.446 irrad=0.8 Pmpp=3.446
~ temperature=25 PF=1 effcurve=Myeff P-TCurve=MyPvsT
~ Daily=MyShapePV4 TDaily=MyTemp

New PVSystem.PV_645_2_6 phases=1 bus1=645.2 kV=2.402 kVA=3.446 irrad=0.8 Pmpp=3.446
~ temperature=25 PF=1 effcurve=Myeff P-TCurve=MyPvsT
~ Daily=MyShapePV5 TDaily=MyTemp

New PVSystem.PV_645_2_7 phases=1 bus1=645.2 kV=2.402 kVA=3.446 irrad=0.8 Pmpp=3.446
~ temperature=25 PF=1 effcurve=Myeff P-TCurve=MyPvsT
~ Daily=MyShapePV6 TDaily=MyTemp

New PVSystem.PV_645_2_8 phases=1 bus1=645.2 kV=2.402 kVA=3.446 irrad=0.8 Pmpp=3.446
~ temperature=25 PF=1 effcurve=Myeff P-TCurve=MyPvsT
~ Daily=MyShapePV7 TDaily=MyTemp

New PVSystem.PV_645_2_9 phases=1 bus1=645.2 kV=2.402 kVA=3.446 irrad=0.8 Pmpp=3.446
~ temperature=25 PF=1 effcurve=Myeff P-TCurve=MyPvsT
~ Daily=MyShapePV8 TDaily=MyTemp

New PVSystem.PV_645_2_10 phases=1 bus1=645.2 kV=2.402 kVA=3.446 irrad=0.8 Pmpp=3.446
~ temperature=25 PF=1 effcurve=Myeff P-TCurve=MyPvsT
~ Daily=MyShapePV9 TDaily=MyTemp

New PVSystem.PV_645_2_11 phases=1 bus1=645.2 kV=2.402 kVA=3.446 irrad=0.8 Pmpp=3.446
~ temperature=25 PF=1 effcurve=Myeff P-TCurve=MyPvsT
~ Daily=MyShapePV10 TDaily=MyTemp

New PVSystem.PV_645_2_12 phases=1 bus1=645.2 kV=2.402 kVA=3.446 irrad=0.8 Pmpp=3.446
~ temperature=25 PF=1 effcurve=Myeff P-TCurve=MyPvsT
~ Daily=MyShapePV11 TDaily=MyTemp

New PVSystem.PV_645_2_13 phases=1 bus1=645.2 kV=2.402 kVA=3.446 irrad=0.8 Pmpp=3.446
~ temperature=25 PF=1 effcurve=Myeff P-TCurve=MyPvsT
~ Daily=MyShapePV12 TDaily=MyTemp

New PVSystem.PV_645_2_14 phases=1 bus1=645.2 kV=2.402 kVA=3.446 irrad=0.8 Pmpp=3.446
~ temperature=25 PF=1 effcurve=Myeff P-TCurve=MyPvsT
~ Daily=MyShapePV13 TDaily=MyTemp

New PVSystem.PV_645_2_15 phases=1 bus1=645.2 kV=2.402 kVA=3.446 irrad=0.8 Pmpp=3.446
~ temperature=25 PF=1 effcurve=Myeff P-TCurve=MyPvsT
~ Daily=MyShapePV14 TDaily=MyTemp

New PVSystem.PV_645_2_16 phases=1 bus1=645.2 kV=2.402 kVA=3.446 irrad=0.8 Pmpp=3.446
~ temperature=25 PF=1 effcurve=Myeff P-TCurve=MyPvsT
~ Daily=MyShapePV15 TDaily=MyTemp

New PVSystem.PV_645_2_17 phases=1 bus1=645.2 kV=2.402 kVA=3.446 irrad=0.8 Pmpp=3.446
~ temperature=25 PF=1 effcurve=Myeff P-TCurve=MyPvsT
~ Daily=MyShapePV16 TDaily=MyTemp

New PVSystem.PV_645_2_18 phases=1 bus1=645.2 kV=2.402 kVA=3.446 irrad=0.8 Pmpp=3.446
~ temperature=25 PF=1 effcurve=Myeff P-TCurve=MyPvsT
~ Daily=MyShapePV17 TDaily=MyTemp

New PVSystem.PV_645_2_19 phases=1 bus1=645.2 kV=2.402 kVA=3.446 irrad=0.8 Pmpp=3.446
~ temperature=25 PF=1 effcurve=Myeff P-TCurve=MyPvsT
~ Daily=MyShapePV18 TDaily=MyTemp

New PVSystem.PV_645_2_20 phases=1 bus1=645.2 kV=2.402 kVA=3.446 irrad=0.8 Pmpp=3.446
~ temperature=25 PF=1 effcurve=Myeff P-TCurve=MyPvsT
~ Daily=MyShapePV19 TDaily=MyTemp

New PVSystem.PV_645_2_21 phases=1 bus1=645.2 kV=2.402 kVA=3.446 irrad=0.8 Pmpp=3.446
~ temperature=25 PF=1 effcurve=Myeff P-TCurve=MyPvsT
~ Daily=MyShapePV20 TDaily=MyTemp

New PVSystem.PV_645_2_22 phases=1 bus1=645.2 kV=2.402 kVA=3.446 irrad=0.8 Pmpp=3.446
~ temperature=25 PF=1 effcurve=Myeff P-TCurve=MyPvsT
~ Daily=MyShapePV21 TDaily=MyTemp

New PVSystem.PV_645_2_23 phases=1 bus1=645.2 kV=2.402 kVA=3.446 irrad=0.8 Pmpp=3.446
~ temperature=25 PF=1 effcurve=Myeff P-TCurve=MyPvsT
~ Daily=MyShapePV22 TDaily=MyTemp

New PVSystem.PV_645_2_24 phases=1 bus1=645.2 kV=2.402 kVA=3.446 irrad=0.8 Pmpp=3.446
~ temperature=25 PF=1 effcurve=Myeff P-TCurve=MyPvsT
~ Daily=MyShapePV23 TDaily=MyTemp

New PVSystem.PV_645_2_25 phases=1 bus1=645.2 kV=2.402 kVA=3.446 irrad=0.8 Pmpp=3.446
~ temperature=25 PF=1 effcurve=Myeff P-TCurve=MyPvsT
~ Daily=MyShapePV24 TDaily=MyTemp

New PVSystem.PV_645_2_26 phases=1 bus1=645.2 kV=2.402 kVA=3.446 irrad=0.8 Pmpp=3.446
~ temperature=25 PF=1 effcurve=Myeff P-TCurve=MyPvsT
~ Daily=MyShapePV25 TDaily=MyTemp

New PVSystem.PV_645_2_27 phases=1 bus1=645.2 kV=2.402 kVA=3.446 irrad=0.8 Pmpp=3.446
~ temperature=25 PF=1 effcurve=Myeff P-TCurve=MyPvsT
~ Daily=MyShapePV26 TDaily=MyTemp

New PVSystem.PV_645_2_28 phases=1 bus1=645.2 kV=2.402 kVA=3.446 irrad=0.8 Pmpp=3.446
~ temperature=25 PF=1 effcurve=Myeff P-TCurve=MyPvsT
~ Daily=MyShapePV27 TDaily=MyTemp

New PVSystem.PV_645_2_29 phases=1 bus1=645.2 kV=2.402 kVA=3.446 irrad=0.8 Pmpp=3.446
~ temperature=25 PF=1 effcurve=Myeff P-TCurve=MyPvsT
~ Daily=MyShapePV28 TDaily=MyTemp

New PVSystem.PV_645_2_30 phases=1 bus1=645.2 kV=2.402 kVA=3.446 irrad=0.8 Pmpp=3.446
~ temperature=25 PF=1 effcurve=Myeff P-TCurve=MyPvsT
~ Daily=MyShapePV29 TDaily=MyTemp

New PVSystem.PV_645_2_31 phases=1 bus1=645.2 kV=2.402 kVA=3.446 irrad=0.8 Pmpp=3.446
~ temperature=25 PF=1 effcurve=Myeff P-TCurve=MyPvsT
~ Daily=MyShapePV30 TDaily=MyTemp

New PVSystem.PV_645_2_32 phases=1 bus1=645.2 kV=2.402 kVA=3.446 irrad=0.8 Pmpp=3.446
~ temperature=25 PF=1 effcurve=Myeff P-TCurve=MyPvsT
~ Daily=MyShapePV31 TDaily=MyTemp

New PVSystem.PV_645_2_33 phases=1 bus1=645.2 kV=2.402 kVA=3.446 irrad=0.8 Pmpp=3.446
~ temperature=25 PF=1 effcurve=Myeff P-TCurve=MyPvsT
~ Daily=MyShapePV32 TDaily=MyTemp

New PVSystem.PV_645_2_34 phases=1 bus1=645.2 kV=2.402 kVA=3.446 irrad=0.8 Pmpp=3.446
~ temperature=25 PF=1 effcurve=Myeff P-TCurve=MyPvsT
~ Daily=MyShapePV33 TDaily=MyTemp

New PVSystem.PV_645_2_35 phases=1 bus1=645.2 kV=2.402 kVA=3.446 irrad=0.8 Pmpp=3.446
~ temperature=25 PF=1 effcurve=Myeff P-TCurve=MyPvsT
~ Daily=MyShapePV34 TDaily=MyTemp

New PVSystem.PV_645_2_36 phases=1 bus1=645.2 kV=2.402 kVA=3.446 irrad=0.8 Pmpp=3.446
~ temperature=25 PF=1 effcurve=Myeff P-TCurve=MyPvsT
~ Daily=MyShapePV35 TDaily=MyTemp

New PVSystem.PV_645_2_37 phases=1 bus1=645.2 kV=2.402 kVA=3.446 irrad=0.8 Pmpp=3.446
~ temperature=25 PF=1 effcurve=Myeff P-TCurve=MyPvsT
~ Daily=MyShapePV36 TDaily=MyTemp

New PVSystem.PV_645_2_38 phases=1 bus1=645.2 kV=2.402 kVA=3.446 irrad=0.8 Pmpp=3.446
~ temperature=25 PF=1 effcurve=Myeff P-TCurve=MyPvsT
~ Daily=MyShapePV37 TDaily=MyTemp

New PVSystem.PV_645_2_39 phases=1 bus1=645.2 kV=2.402 kVA=3.446 irrad=0.8 Pmpp=3.446
~ temperature=25 PF=1 effcurve=Myeff P-TCurve=MyPvsT
~ Daily=MyShapePV38 TDaily=MyTemp

New PVSystem.PV_645_2_40 phases=1 bus1=645.2 kV=2.402 kVA=3.446 irrad=0.8 Pmpp=3.446
~ temperature=25 PF=1 effcurve=Myeff P-TCurve=MyPvsT
~ Daily=MyShapePV39 TDaily=MyTemp

New PVSystem.PV_645_2_41 phases=1 bus1=645.2 kV=2.402 kVA=3.446 irrad=0.8 Pmpp=3.446
~ temperature=25 PF=1 effcurve=Myeff P-TCurve=MyPvsT
~ Daily=MyShapePV40 TDaily=MyTemp

New PVSystem.PV_645_2_42 phases=1 bus1=645.2 kV=2.402 kVA=3.446 irrad=0.8 Pmpp=3.446
~ temperature=25 PF=1 effcurve=Myeff P-TCurve=MyPvsT
~ Daily=MyShapePV41 TDaily=MyTemp

New PVSystem.PV_645_2_43 phases=1 bus1=645.2 kV=2.402 kVA=3.446 irrad=0.8 Pmpp=3.446
~ temperature=25 PF=1 effcurve=Myeff P-TCurve=MyPvsT
~ Daily=MyShapePV42 TDaily=MyTemp

New PVSystem.PV_645_2_44 phases=1 bus1=645.2 kV=2.402 kVA=3.446 irrad=0.8 Pmpp=3.446
~ temperature=25 PF=1 effcurve=Myeff P-TCurve=MyPvsT
~ Daily=MyShapePV43 TDaily=MyTemp

New PVSystem.PV_645_2_45 phases=1 bus1=645.2 kV=2.402 kVA=3.446 irrad=0.8 Pmpp=3.446
~ temperature=25 PF=1 effcurve=Myeff P-TCurve=MyPvsT
~ Daily=MyShapePV44 TDaily=MyTemp

New PVSystem.PV_645_2_46 phases=1 bus1=645.2 kV=2.402 kVA=3.446 irrad=0.8 Pmpp=3.446
~ temperature=25 PF=1 effcurve=Myeff P-TCurve=MyPvsT
~ Daily=MyShapePV45 TDaily=MyTemp

New PVSystem.PV_645_2_47 phases=1 bus1=645.2 kV=2.402 kVA=3.446 irrad=0.8 Pmpp=3.446
~ temperature=25 PF=1 effcurve=Myeff P-TCurve=MyPvsT
~ Daily=MyShapePV46 TDaily=MyTemp

New PVSystem.PV_645_2_48 phases=1 bus1=645.2 kV=2.402 kVA=3.446 irrad=0.8 Pmpp=3.446
~ temperature=25 PF=1 effcurve=Myeff P-TCurve=MyPvsT
~ Daily=MyShapePV47 TDaily=MyTemp

New PVSystem.PV_645_2_49 phases=1 bus1=645.2 kV=2.402 kVA=3.446 irrad=0.8 Pmpp=3.446
~ temperature=25 PF=1 effcurve=Myeff P-TCurve=MyPvsT
~ Daily=MyShapePV48 TDaily=MyTemp

New PVSystem.PV_645_2_50 phases=1 bus1=645.2 kV=2.402 kVA=3.446 irrad=0.8 Pmpp=3.446
~ temperature=25 PF=1 effcurve=Myeff P-TCurve=MyPvsT
~ Daily=MyShapePV49 TDaily=MyTemp

New PVSystem.PV_645_2_51 phases=1 bus1=645.2 kV=2.402 kVA=3.446 irrad=0.8 Pmpp=3.446
~ temperature=25 PF=1 effcurve=Myeff P-TCurve=MyPvsT
~ Daily=MyShapePV50 TDaily=MyTemp

New PVSystem.PV_645_2_52 phases=1 bus1=645.2 kV=2.402 kVA=3.446 irrad=0.8 Pmpp=3.446
~ temperature=25 PF=1 effcurve=Myeff P-TCurve=MyPvsT
~ Daily=MyShapePV1 TDaily=MyTemp

New PVSystem.PV_645_2_53 phases=1 bus1=645.2 kV=2.402 kVA=3.446 irrad=0.8 Pmpp=3.446
~ temperature=25 PF=1 effcurve=Myeff P-TCurve=MyPvsT
~ Daily=MyShapePV2 TDaily=MyTemp

New PVSystem.PV_645_2_54 phases=1 bus1=645.2 kV=2.402 kVA=3.446 irrad=0.8 Pmpp=3.446
~ temperature=25 PF=1 effcurve=Myeff P-TCurve=MyPvsT
~ Daily=MyShapePV3 TDaily=MyTemp

New PVSystem.PV_645_2_55 phases=1 bus1=645.2 kV=2.402 kVA=3.446 irrad=0.8 Pmpp=3.446
~ temperature=25 PF=1 effcurve=Myeff P-TCurve=MyPvsT
~ Daily=MyShapePV4 TDaily=MyTemp

New PVSystem.PV_645_2_56 phases=1 bus1=645.2 kV=2.402 kVA=3.446 irrad=0.8 Pmpp=3.446
~ temperature=25 PF=1 effcurve=Myeff P-TCurve=MyPvsT
~ Daily=MyShapePV5 TDaily=MyTemp

New PVSystem.PV_645_2_57 phases=1 bus1=645.2 kV=2.402 kVA=3.446 irrad=0.8 Pmpp=3.446
~ temperature=25 PF=1 effcurve=Myeff P-TCurve=MyPvsT
~ Daily=MyShapePV6 TDaily=MyTemp

New PVSystem.PV_645_2_58 phases=1 bus1=645.2 kV=2.402 kVA=3.446 irrad=0.8 Pmpp=3.446
~ temperature=25 PF=1 effcurve=Myeff P-TCurve=MyPvsT
~ Daily=MyShapePV7 TDaily=MyTemp

New PVSystem.PV_645_2_59 phases=1 bus1=645.2 kV=2.402 kVA=3.446 irrad=0.8 Pmpp=3.446
~ temperature=25 PF=1 effcurve=Myeff P-TCurve=MyPvsT
~ Daily=MyShapePV8 TDaily=MyTemp

New PVSystem.PV_645_2_60 phases=1 bus1=645.2 kV=2.402 kVA=3.446 irrad=0.8 Pmpp=3.446
~ temperature=25 PF=1 effcurve=Myeff P-TCurve=MyPvsT
~ Daily=MyShapePV9 TDaily=MyTemp

New PVSystem.PV_645_2_61 phases=1 bus1=645.2 kV=2.402 kVA=3.446 irrad=0.8 Pmpp=3.446
~ temperature=25 PF=1 effcurve=Myeff P-TCurve=MyPvsT
~ Daily=MyShapePV10 TDaily=MyTemp

New PVSystem.PV_645_2_62 phases=1 bus1=645.2 kV=2.402 kVA=3.446 irrad=0.8 Pmpp=3.446
~ temperature=25 PF=1 effcurve=Myeff P-TCurve=MyPvsT
~ Daily=MyShapePV11 TDaily=MyTemp

New PVSystem.PV_645_2_63 phases=1 bus1=645.2 kV=2.402 kVA=3.446 irrad=0.8 Pmpp=3.446
~ temperature=25 PF=1 effcurve=Myeff P-TCurve=MyPvsT
~ Daily=MyShapePV12 TDaily=MyTemp

New PVSystem.PV_645_2_64 phases=1 bus1=645.2 kV=2.402 kVA=3.446 irrad=0.8 Pmpp=3.446
~ temperature=25 PF=1 effcurve=Myeff P-TCurve=MyPvsT
~ Daily=MyShapePV13 TDaily=MyTemp

New PVSystem.PV_645_2_65 phases=1 bus1=645.2 kV=2.402 kVA=3.446 irrad=0.8 Pmpp=3.446
~ temperature=25 PF=1 effcurve=Myeff P-TCurve=MyPvsT
~ Daily=MyShapePV14 TDaily=MyTemp

New PVSystem.PV_645_2_66 phases=1 bus1=645.2 kV=2.402 kVA=3.446 irrad=0.8 Pmpp=3.446
~ temperature=25 PF=1 effcurve=Myeff P-TCurve=MyPvsT
~ Daily=MyShapePV15 TDaily=MyTemp

New PVSystem.PV_645_2_67 phases=1 bus1=645.2 kV=2.402 kVA=3.446 irrad=0.8 Pmpp=3.446
~ temperature=25 PF=1 effcurve=Myeff P-TCurve=MyPvsT
~ Daily=MyShapePV16 TDaily=MyTemp

New PVSystem.PV_645_2_68 phases=1 bus1=645.2 kV=2.402 kVA=3.446 irrad=0.8 Pmpp=3.446
~ temperature=25 PF=1 effcurve=Myeff P-TCurve=MyPvsT
~ Daily=MyShapePV17 TDaily=MyTemp

New PVSystem.PV_645_2_69 phases=1 bus1=645.2 kV=2.402 kVA=3.446 irrad=0.8 Pmpp=3.446
~ temperature=25 PF=1 effcurve=Myeff P-TCurve=MyPvsT
~ Daily=MyShapePV18 TDaily=MyTemp

New PVSystem.PV_645_2_70 phases=1 bus1=645.2 kV=2.402 kVA=3.446 irrad=0.8 Pmpp=3.446
~ temperature=25 PF=1 effcurve=Myeff P-TCurve=MyPvsT
~ Daily=MyShapePV19 TDaily=MyTemp

New PVSystem.PV_645_2_71 phases=1 bus1=645.2 kV=2.402 kVA=3.446 irrad=0.8 Pmpp=3.446
~ temperature=25 PF=1 effcurve=Myeff P-TCurve=MyPvsT
~ Daily=MyShapePV20 TDaily=MyTemp

New PVSystem.PV_645_2_72 phases=1 bus1=645.2 kV=2.402 kVA=3.446 irrad=0.8 Pmpp=3.446
~ temperature=25 PF=1 effcurve=Myeff P-TCurve=MyPvsT
~ Daily=MyShapePV21 TDaily=MyTemp

New PVSystem.PV_645_2_73 phases=1 bus1=645.2 kV=2.402 kVA=3.446 irrad=0.8 Pmpp=3.446
~ temperature=25 PF=1 effcurve=Myeff P-TCurve=MyPvsT
~ Daily=MyShapePV22 TDaily=MyTemp

New PVSystem.PV_645_2_74 phases=1 bus1=645.2 kV=2.402 kVA=3.446 irrad=0.8 Pmpp=3.446
~ temperature=25 PF=1 effcurve=Myeff P-TCurve=MyPvsT
~ Daily=MyShapePV23 TDaily=MyTemp

New PVSystem.PV_670_1_1 phases=1 bus1=670.1 kV=2.402 kVA=12.750 irrad=0.8 Pmpp=12.750
~ temperature=25 PF=1 effcurve=Myeff P-TCurve=MyPvsT
~ Daily=MyShapePV24 TDaily=MyTemp

New PVSystem.PV_670_1_2 phases=1 bus1=670.1 kV=2.402 kVA=12.750 irrad=0.8 Pmpp=12.750
~ temperature=25 PF=1 effcurve=Myeff P-TCurve=MyPvsT
~ Daily=MyShapePV25 TDaily=MyTemp

New PVSystem.PV_670_2_1 phases=1 bus1=670.2 kV=2.402 kVA=11.000 irrad=0.8 Pmpp=11.000
~ temperature=25 PF=1 effcurve=Myeff P-TCurve=MyPvsT
~ Daily=MyShapePV26 TDaily=MyTemp

New PVSystem.PV_670_2_2 phases=1 bus1=670.2 kV=2.402 kVA=11.000 irrad=0.8 Pmpp=11.000
~ temperature=25 PF=1 effcurve=Myeff P-TCurve=MyPvsT
~ Daily=MyShapePV27 TDaily=MyTemp

New PVSystem.PV_670_2_3 phases=1 bus1=670.2 kV=2.402 kVA=11.000 irrad=0.8 Pmpp=11.000
~ temperature=25 PF=1 effcurve=Myeff P-TCurve=MyPvsT
~ Daily=MyShapePV28 TDaily=MyTemp

New PVSystem.PV_670_2_4 phases=1 bus1=670.2 kV=2.402 kVA=11.000 irrad=0.8 Pmpp=11.000
~ temperature=25 PF=1 effcurve=Myeff P-TCurve=MyPvsT
~ Daily=MyShapePV29 TDaily=MyTemp

New PVSystem.PV_670_2_5 phases=1 bus1=670.2 kV=2.402 kVA=11.000 irrad=0.8 Pmpp=11.000
~ temperature=25 PF=1 effcurve=Myeff P-TCurve=MyPvsT
~ Daily=MyShapePV30 TDaily=MyTemp

New PVSystem.PV_670_2_6 phases=1 bus1=670.2 kV=2.402 kVA=11.000 irrad=0.8 Pmpp=11.000
~ temperature=25 PF=1 effcurve=Myeff P-TCurve=MyPvsT
~ Daily=MyShapePV31 TDaily=MyTemp

New PVSystem.PV_670_2_7 phases=1 bus1=670.2 kV=2.402 kVA=11.000 irrad=0.8 Pmpp=11.000
~ temperature=25 PF=1 effcurve=Myeff P-TCurve=MyPvsT
~ Daily=MyShapePV32 TDaily=MyTemp

New PVSystem.PV_670_2_8 phases=1 bus1=670.2 kV=2.402 kVA=11.000 irrad=0.8 Pmpp=11.000
~ temperature=25 PF=1 effcurve=Myeff P-TCurve=MyPvsT
~ Daily=MyShapePV33 TDaily=MyTemp

New PVSystem.PV_670_2_9 phases=1 bus1=670.2 kV=2.402 kVA=11.000 irrad=0.8 Pmpp=11.000
~ temperature=25 PF=1 effcurve=Myeff P-TCurve=MyPvsT
~ Daily=MyShapePV34 TDaily=MyTemp

New PVSystem.PV_670_3_1 phases=1 bus1=670.3 kV=2.402 kVA=7.977 irrad=0.8 Pmpp=7.977
~ temperature=25 PF=1 effcurve=Myeff P-TCurve=MyPvsT
~ Daily=MyShapePV35 TDaily=MyTemp

New PVSystem.PV_670_3_2 phases=1 bus1=670.3 kV=2.402 kVA=7.977 irrad=0.8 Pmpp=7.977
~ temperature=25 PF=1 effcurve=Myeff P-TCurve=MyPvsT
~ Daily=MyShapePV36 TDaily=MyTemp

New PVSystem.PV_670_3_3 phases=1 bus1=670.3 kV=2.402 kVA=7.977 irrad=0.8 Pmpp=7.977
~ temperature=25 PF=1 effcurve=Myeff P-TCurve=MyPvsT
~ Daily=MyShapePV37 TDaily=MyTemp

New PVSystem.PV_670_3_4 phases=1 bus1=670.3 kV=2.402 kVA=7.977 irrad=0.8 Pmpp=7.977
~ temperature=25 PF=1 effcurve=Myeff P-TCurve=MyPvsT
~ Daily=MyShapePV38 TDaily=MyTemp

New PVSystem.PV_670_3_5 phases=1 bus1=670.3 kV=2.402 kVA=7.977 irrad=0.8 Pmpp=7.977
~ temperature=25 PF=1 effcurve=Myeff P-TCurve=MyPvsT
~ Daily=MyShapePV39 TDaily=MyTemp

New PVSystem.PV_670_3_6 phases=1 bus1=670.3 kV=2.402 kVA=7.977 irrad=0.8 Pmpp=7.977
~ temperature=25 PF=1 effcurve=Myeff P-TCurve=MyPvsT
~ Daily=MyShapePV40 TDaily=MyTemp

New PVSystem.PV_670_3_7 phases=1 bus1=670.3 kV=2.402 kVA=7.977 irrad=0.8 Pmpp=7.977
~ temperature=25 PF=1 effcurve=Myeff P-TCurve=MyPvsT
~ Daily=MyShapePV41 TDaily=MyTemp

New PVSystem.PV_670_3_8 phases=1 bus1=670.3 kV=2.402 kVA=7.977 irrad=0.8 Pmpp=7.977
~ temperature=25 PF=1 effcurve=Myeff P-TCurve=MyPvsT
~ Daily=MyShapePV42 TDaily=MyTemp

New PVSystem.PV_670_3_9 phases=1 bus1=670.3 kV=2.402 kVA=7.977 irrad=0.8 Pmpp=7.977
~ temperature=25 PF=1 effcurve=Myeff P-TCurve=MyPvsT
~ Daily=MyShapePV43 TDaily=MyTemp

New PVSystem.PV_670_3_10 phases=1 bus1=670.3 kV=2.402 kVA=7.977 irrad=0.8 Pmpp=7.977
~ temperature=25 PF=1 effcurve=Myeff P-TCurve=MyPvsT
~ Daily=MyShapePV44 TDaily=MyTemp

New PVSystem.PV_670_3_11 phases=1 bus1=670.3 kV=2.402 kVA=7.977 irrad=0.8 Pmpp=7.977
~ temperature=25 PF=1 effcurve=Myeff P-TCurve=MyPvsT
~ Daily=MyShapePV45 TDaily=MyTemp

New PVSystem.PV_670_3_12 phases=1 bus1=670.3 kV=2.402 kVA=7.977 irrad=0.8 Pmpp=7.977
~ temperature=25 PF=1 effcurve=Myeff P-TCurve=MyPvsT
~ Daily=MyShapePV46 TDaily=MyTemp

New PVSystem.PV_670_3_13 phases=1 bus1=670.3 kV=2.402 kVA=7.977 irrad=0.8 Pmpp=7.977
~ temperature=25 PF=1 effcurve=Myeff P-TCurve=MyPvsT
~ Daily=MyShapePV47 TDaily=MyTemp

New PVSystem.PV_670_3_14 phases=1 bus1=670.3 kV=2.402 kVA=7.977 irrad=0.8 Pmpp=7.977
~ temperature=25 PF=1 effcurve=Myeff P-TCurve=MyPvsT
~ Daily=MyShapePV48 TDaily=MyTemp

New PVSystem.PV_670_3_15 phases=1 bus1=670.3 kV=2.402 kVA=7.977 irrad=0.8 Pmpp=7.977
~ temperature=25 PF=1 effcurve=Myeff P-TCurve=MyPvsT
~ Daily=MyShapePV49 TDaily=MyTemp

New PVSystem.PV_670_3_16 phases=1 bus1=670.3 kV=2.402 kVA=7.977 irrad=0.8 Pmpp=7.977
~ temperature=25 PF=1 effcurve=Myeff P-TCurve=MyPvsT
~ Daily=MyShapePV50 TDaily=MyTemp

New PVSystem.PV_670_3_17 phases=1 bus1=670.3 kV=2.402 kVA=7.977 irrad=0.8 Pmpp=7.977
~ temperature=25 PF=1 effcurve=Myeff P-TCurve=MyPvsT
~ Daily=MyShapePV1 TDaily=MyTemp

New PVSystem.PV_670_3_18 phases=1 bus1=670.3 kV=2.402 kVA=7.977 irrad=0.8 Pmpp=7.977
~ temperature=25 PF=1 effcurve=Myeff P-TCurve=MyPvsT
~ Daily=MyShapePV2 TDaily=MyTemp

New PVSystem.PV_670_3_19 phases=1 bus1=670.3 kV=2.402 kVA=7.977 irrad=0.8 Pmpp=7.977
~ temperature=25 PF=1 effcurve=Myeff P-TCurve=MyPvsT
~ Daily=MyShapePV3 TDaily=MyTemp

New PVSystem.PV_670_3_20 phases=1 bus1=670.3 kV=2.402 kVA=7.977 irrad=0.8 Pmpp=7.977
~ temperature=25 PF=1 effcurve=Myeff P-TCurve=MyPvsT
~ Daily=MyShapePV4 TDaily=MyTemp

New PVSystem.PV_670_3_21 phases=1 bus1=670.3 kV=2.402 kVA=7.977 irrad=0.8 Pmpp=7.977
~ temperature=25 PF=1 effcurve=Myeff P-TCurve=MyPvsT
~ Daily=MyShapePV5 TDaily=MyTemp

New PVSystem.PV_670_3_22 phases=1 bus1=670.3 kV=2.402 kVA=7.977 irrad=0.8 Pmpp=7.977
~ temperature=25 PF=1 effcurve=Myeff P-TCurve=MyPvsT
~ Daily=MyShapePV6 TDaily=MyTemp

New PVSystem.PV_634_1_1 phases=1 bus1=634.1 kV=0.277 kVA=3.582 irrad=0.8 Pmpp=3.582
~ temperature=25 PF=1 effcurve=Myeff P-TCurve=MyPvsT
~ Daily=MyShapePV7 TDaily=MyTemp

New PVSystem.PV_634_1_2 phases=1 bus1=634.1 kV=0.277 kVA=3.582 irrad=0.8 Pmpp=3.582
~ temperature=25 PF=1 effcurve=Myeff P-TCurve=MyPvsT
~ Daily=MyShapePV8 TDaily=MyTemp

New PVSystem.PV_634_1_3 phases=1 bus1=634.1 kV=0.277 kVA=3.582 irrad=0.8 Pmpp=3.582
~ temperature=25 PF=1 effcurve=Myeff P-TCurve=MyPvsT
~ Daily=MyShapePV9 TDaily=MyTemp

New PVSystem.PV_634_1_4 phases=1 bus1=634.1 kV=0.277 kVA=3.582 irrad=0.8 Pmpp=3.582
~ temperature=25 PF=1 effcurve=Myeff P-TCurve=MyPvsT
~ Daily=MyShapePV10 TDaily=MyTemp

New PVSystem.PV_634_1_5 phases=1 bus1=634.1 kV=0.277 kVA=3.582 irrad=0.8 Pmpp=3.582
~ temperature=25 PF=1 effcurve=Myeff P-TCurve=MyPvsT
~ Daily=MyShapePV11 TDaily=MyTemp

New PVSystem.PV_634_1_6 phases=1 bus1=634.1 kV=0.277 kVA=3.582 irrad=0.8 Pmpp=3.582
~ temperature=25 PF=1 effcurve=Myeff P-TCurve=MyPvsT
~ Daily=MyShapePV12 TDaily=MyTemp

New PVSystem.PV_634_1_7 phases=1 bus1=634.1 kV=0.277 kVA=3.582 irrad=0.8 Pmpp=3.582
~ temperature=25 PF=1 effcurve=Myeff P-TCurve=MyPvsT
~ Daily=MyShapePV13 TDaily=MyTemp

New PVSystem.PV_634_1_8 phases=1 bus1=634.1 kV=0.277 kVA=3.582 irrad=0.8 Pmpp=3.582
~ temperature=25 PF=1 effcurve=Myeff P-TCurve=MyPvsT
~ Daily=MyShapePV14 TDaily=MyTemp

New PVSystem.PV_634_1_9 phases=1 bus1=634.1 kV=0.277 kVA=3.582 irrad=0.8 Pmpp=3.582
~ temperature=25 PF=1 effcurve=Myeff P-TCurve=MyPvsT
~ Daily=MyShapePV15 TDaily=MyTemp

New PVSystem.PV_634_1_10 phases=1 bus1=634.1 kV=0.277 kVA=3.582 irrad=0.8 Pmpp=3.582
~ temperature=25 PF=1 effcurve=Myeff P-TCurve=MyPvsT
~ Daily=MyShapePV16 TDaily=MyTemp

New PVSystem.PV_634_1_11 phases=1 bus1=634.1 kV=0.277 kVA=3.582 irrad=0.8 Pmpp=3.582
~ temperature=25 PF=1 effcurve=Myeff P-TCurve=MyPvsT
~ Daily=MyShapePV17 TDaily=MyTemp

New PVSystem.PV_634_1_12 phases=1 bus1=634.1 kV=0.277 kVA=3.582 irrad=0.8 Pmpp=3.582
~ temperature=25 PF=1 effcurve=Myeff P-TCurve=MyPvsT
~ Daily=MyShapePV18 TDaily=MyTemp

New PVSystem.PV_634_1_13 phases=1 bus1=634.1 kV=0.277 kVA=3.582 irrad=0.8 Pmpp=3.582
~ temperature=25 PF=1 effcurve=Myeff P-TCurve=MyPvsT
~ Daily=MyShapePV19 TDaily=MyTemp

New PVSystem.PV_634_1_14 phases=1 bus1=634.1 kV=0.277 kVA=3.582 irrad=0.8 Pmpp=3.582
~ temperature=25 PF=1 effcurve=Myeff P-TCurve=MyPvsT
~ Daily=MyShapePV20 TDaily=MyTemp

New PVSystem.PV_634_1_15 phases=1 bus1=634.1 kV=0.277 kVA=3.582 irrad=0.8 Pmpp=3.582
~ temperature=25 PF=1 effcurve=Myeff P-TCurve=MyPvsT
~ Daily=MyShapePV21 TDaily=MyTemp

New PVSystem.PV_634_1_16 phases=1 bus1=634.1 kV=0.277 kVA=3.582 irrad=0.8 Pmpp=3.582
~ temperature=25 PF=1 effcurve=Myeff P-TCurve=MyPvsT
~ Daily=MyShapePV22 TDaily=MyTemp

New PVSystem.PV_634_1_17 phases=1 bus1=634.1 kV=0.277 kVA=3.582 irrad=0.8 Pmpp=3.582
~ temperature=25 PF=1 effcurve=Myeff P-TCurve=MyPvsT
~ Daily=MyShapePV23 TDaily=MyTemp

New PVSystem.PV_634_1_18 phases=1 bus1=634.1 kV=0.277 kVA=3.582 irrad=0.8 Pmpp=3.582
~ temperature=25 PF=1 effcurve=Myeff P-TCurve=MyPvsT
~ Daily=MyShapePV24 TDaily=MyTemp

New PVSystem.PV_634_1_19 phases=1 bus1=634.1 kV=0.277 kVA=3.582 irrad=0.8 Pmpp=3.582
~ temperature=25 PF=1 effcurve=Myeff P-TCurve=MyPvsT
~ Daily=MyShapePV25 TDaily=MyTemp

New PVSystem.PV_634_1_20 phases=1 bus1=634.1 kV=0.277 kVA=3.582 irrad=0.8 Pmpp=3.582
~ temperature=25 PF=1 effcurve=Myeff P-TCurve=MyPvsT
~ Daily=MyShapePV26 TDaily=MyTemp

New PVSystem.PV_634_1_21 phases=1 bus1=634.1 kV=0.277 kVA=3.582 irrad=0.8 Pmpp=3.582
~ temperature=25 PF=1 effcurve=Myeff P-TCurve=MyPvsT
~ Daily=MyShapePV27 TDaily=MyTemp

New PVSystem.PV_634_1_22 phases=1 bus1=634.1 kV=0.277 kVA=3.582 irrad=0.8 Pmpp=3.582
~ temperature=25 PF=1 effcurve=Myeff P-TCurve=MyPvsT
~ Daily=MyShapePV28 TDaily=MyTemp

New PVSystem.PV_634_1_23 phases=1 bus1=634.1 kV=0.277 kVA=3.582 irrad=0.8 Pmpp=3.582
~ temperature=25 PF=1 effcurve=Myeff P-TCurve=MyPvsT
~ Daily=MyShapePV29 TDaily=MyTemp

New PVSystem.PV_634_1_24 phases=1 bus1=634.1 kV=0.277 kVA=3.582 irrad=0.8 Pmpp=3.582
~ temperature=25 PF=1 effcurve=Myeff P-TCurve=MyPvsT
~ Daily=MyShapePV30 TDaily=MyTemp

New PVSystem.PV_634_1_25 phases=1 bus1=634.1 kV=0.277 kVA=3.582 irrad=0.8 Pmpp=3.582
~ temperature=25 PF=1 effcurve=Myeff P-TCurve=MyPvsT
~ Daily=MyShapePV31 TDaily=MyTemp

New PVSystem.PV_634_1_26 phases=1 bus1=634.1 kV=0.277 kVA=3.582 irrad=0.8 Pmpp=3.582
~ temperature=25 PF=1 effcurve=Myeff P-TCurve=MyPvsT
~ Daily=MyShapePV32 TDaily=MyTemp

New PVSystem.PV_634_1_27 phases=1 bus1=634.1 kV=0.277 kVA=3.582 irrad=0.8 Pmpp=3.582
~ temperature=25 PF=1 effcurve=Myeff P-TCurve=MyPvsT
~ Daily=MyShapePV33 TDaily=MyTemp

New PVSystem.PV_634_1_28 phases=1 bus1=634.1 kV=0.277 kVA=3.582 irrad=0.8 Pmpp=3.582
~ temperature=25 PF=1 effcurve=Myeff P-TCurve=MyPvsT
~ Daily=MyShapePV34 TDaily=MyTemp

New PVSystem.PV_634_1_29 phases=1 bus1=634.1 kV=0.277 kVA=3.582 irrad=0.8 Pmpp=3.582
~ temperature=25 PF=1 effcurve=Myeff P-TCurve=MyPvsT
~ Daily=MyShapePV35 TDaily=MyTemp

New PVSystem.PV_634_1_30 phases=1 bus1=634.1 kV=0.277 kVA=3.582 irrad=0.8 Pmpp=3.582
~ temperature=25 PF=1 effcurve=Myeff P-TCurve=MyPvsT
~ Daily=MyShapePV36 TDaily=MyTemp

New PVSystem.PV_634_1_31 phases=1 bus1=634.1 kV=0.277 kVA=3.582 irrad=0.8 Pmpp=3.582
~ temperature=25 PF=1 effcurve=Myeff P-TCurve=MyPvsT
~ Daily=MyShapePV37 TDaily=MyTemp

New PVSystem.PV_634_1_32 phases=1 bus1=634.1 kV=0.277 kVA=3.582 irrad=0.8 Pmpp=3.582
~ temperature=25 PF=1 effcurve=Myeff P-TCurve=MyPvsT
~ Daily=MyShapePV38 TDaily=MyTemp

New PVSystem.PV_634_1_33 phases=1 bus1=634.1 kV=0.277 kVA=3.582 irrad=0.8 Pmpp=3.582
~ temperature=25 PF=1 effcurve=Myeff P-TCurve=MyPvsT
~ Daily=MyShapePV39 TDaily=MyTemp

New PVSystem.PV_634_1_34 phases=1 bus1=634.1 kV=0.277 kVA=3.582 irrad=0.8 Pmpp=3.582
~ temperature=25 PF=1 effcurve=Myeff P-TCurve=MyPvsT
~ Daily=MyShapePV40 TDaily=MyTemp

New PVSystem.PV_634_1_35 phases=1 bus1=634.1 kV=0.277 kVA=3.582 irrad=0.8 Pmpp=3.582
~ temperature=25 PF=1 effcurve=Myeff P-TCurve=MyPvsT
~ Daily=MyShapePV41 TDaily=MyTemp

New PVSystem.PV_634_1_36 phases=1 bus1=634.1 kV=0.277 kVA=3.582 irrad=0.8 Pmpp=3.582
~ temperature=25 PF=1 effcurve=Myeff P-TCurve=MyPvsT
~ Daily=MyShapePV42 TDaily=MyTemp

New PVSystem.PV_634_1_37 phases=1 bus1=634.1 kV=0.277 kVA=3.582 irrad=0.8 Pmpp=3.582
~ temperature=25 PF=1 effcurve=Myeff P-TCurve=MyPvsT
~ Daily=MyShapePV43 TDaily=MyTemp

New PVSystem.PV_634_1_38 phases=1 bus1=634.1 kV=0.277 kVA=3.582 irrad=0.8 Pmpp=3.582
~ temperature=25 PF=1 effcurve=Myeff P-TCurve=MyPvsT
~ Daily=MyShapePV44 TDaily=MyTemp

New PVSystem.PV_634_1_39 phases=1 bus1=634.1 kV=0.277 kVA=3.582 irrad=0.8 Pmpp=3.582
~ temperature=25 PF=1 effcurve=Myeff P-TCurve=MyPvsT
~ Daily=MyShapePV45 TDaily=MyTemp

New PVSystem.PV_634_1_40 phases=1 bus1=634.1 kV=0.277 kVA=3.582 irrad=0.8 Pmpp=3.582
~ temperature=25 PF=1 effcurve=Myeff P-TCurve=MyPvsT
~ Daily=MyShapePV46 TDaily=MyTemp

New PVSystem.PV_634_1_41 phases=1 bus1=634.1 kV=0.277 kVA=3.582 irrad=0.8 Pmpp=3.582
~ temperature=25 PF=1 effcurve=Myeff P-TCurve=MyPvsT
~ Daily=MyShapePV47 TDaily=MyTemp

New PVSystem.PV_634_1_42 phases=1 bus1=634.1 kV=0.277 kVA=3.582 irrad=0.8 Pmpp=3.582
~ temperature=25 PF=1 effcurve=Myeff P-TCurve=MyPvsT
~ Daily=MyShapePV48 TDaily=MyTemp

New PVSystem.PV_634_1_43 phases=1 bus1=634.1 kV=0.277 kVA=3.582 irrad=0.8 Pmpp=3.582
~ temperature=25 PF=1 effcurve=Myeff P-TCurve=MyPvsT
~ Daily=MyShapePV49 TDaily=MyTemp

New PVSystem.PV_634_1_44 phases=1 bus1=634.1 kV=0.277 kVA=3.582 irrad=0.8 Pmpp=3.582
~ temperature=25 PF=1 effcurve=Myeff P-TCurve=MyPvsT
~ Daily=MyShapePV50 TDaily=MyTemp

New PVSystem.PV_634_1_45 phases=1 bus1=634.1 kV=0.277 kVA=3.582 irrad=0.8 Pmpp=3.582
~ temperature=25 PF=1 effcurve=Myeff P-TCurve=MyPvsT
~ Daily=MyShapePV1 TDaily=MyTemp

New PVSystem.PV_634_1_46 phases=1 bus1=634.1 kV=0.277 kVA=3.582 irrad=0.8 Pmpp=3.582
~ temperature=25 PF=1 effcurve=Myeff P-TCurve=MyPvsT
~ Daily=MyShapePV2 TDaily=MyTemp

New PVSystem.PV_634_1_47 phases=1 bus1=634.1 kV=0.277 kVA=3.582 irrad=0.8 Pmpp=3.582
~ temperature=25 PF=1 effcurve=Myeff P-TCurve=MyPvsT
~ Daily=MyShapePV3 TDaily=MyTemp

New PVSystem.PV_634_1_48 phases=1 bus1=634.1 kV=0.277 kVA=3.582 irrad=0.8 Pmpp=3.582
~ temperature=25 PF=1 effcurve=Myeff P-TCurve=MyPvsT
~ Daily=MyShapePV4 TDaily=MyTemp

New PVSystem.PV_634_1_49 phases=1 bus1=634.1 kV=0.277 kVA=3.582 irrad=0.8 Pmpp=3.582
~ temperature=25 PF=1 effcurve=Myeff P-TCurve=MyPvsT
~ Daily=MyShapePV5 TDaily=MyTemp

New PVSystem.PV_634_1_50 phases=1 bus1=634.1 kV=0.277 kVA=3.582 irrad=0.8 Pmpp=3.582
~ temperature=25 PF=1 effcurve=Myeff P-TCurve=MyPvsT
~ Daily=MyShapePV6 TDaily=MyTemp

New PVSystem.PV_634_1_51 phases=1 bus1=634.1 kV=0.277 kVA=3.582 irrad=0.8 Pmpp=3.582
~ temperature=25 PF=1 effcurve=Myeff P-TCurve=MyPvsT
~ Daily=MyShapePV7 TDaily=MyTemp

New PVSystem.PV_634_1_52 phases=1 bus1=634.1 kV=0.277 kVA=3.582 irrad=0.8 Pmpp=3.582
~ temperature=25 PF=1 effcurve=Myeff P-TCurve=MyPvsT
~ Daily=MyShapePV8 TDaily=MyTemp

New PVSystem.PV_634_1_53 phases=1 bus1=634.1 kV=0.277 kVA=3.582 irrad=0.8 Pmpp=3.582
~ temperature=25 PF=1 effcurve=Myeff P-TCurve=MyPvsT
~ Daily=MyShapePV9 TDaily=MyTemp

New PVSystem.PV_634_1_54 phases=1 bus1=634.1 kV=0.277 kVA=3.582 irrad=0.8 Pmpp=3.582
~ temperature=25 PF=1 effcurve=Myeff P-TCurve=MyPvsT
~ Daily=MyShapePV10 TDaily=MyTemp

New PVSystem.PV_634_1_55 phases=1 bus1=634.1 kV=0.277 kVA=3.582 irrad=0.8 Pmpp=3.582
~ temperature=25 PF=1 effcurve=Myeff P-TCurve=MyPvsT
~ Daily=MyShapePV11 TDaily=MyTemp

New PVSystem.PV_634_1_56 phases=1 bus1=634.1 kV=0.277 kVA=3.582 irrad=0.8 Pmpp=3.582
~ temperature=25 PF=1 effcurve=Myeff P-TCurve=MyPvsT
~ Daily=MyShapePV12 TDaily=MyTemp

New PVSystem.PV_634_1_57 phases=1 bus1=634.1 kV=0.277 kVA=3.582 irrad=0.8 Pmpp=3.582
~ temperature=25 PF=1 effcurve=Myeff P-TCurve=MyPvsT
~ Daily=MyShapePV13 TDaily=MyTemp

New PVSystem.PV_634_1_58 phases=1 bus1=634.1 kV=0.277 kVA=3.582 irrad=0.8 Pmpp=3.582
~ temperature=25 PF=1 effcurve=Myeff P-TCurve=MyPvsT
~ Daily=MyShapePV14 TDaily=MyTemp

New PVSystem.PV_634_1_59 phases=1 bus1=634.1 kV=0.277 kVA=3.582 irrad=0.8 Pmpp=3.582
~ temperature=25 PF=1 effcurve=Myeff P-TCurve=MyPvsT
~ Daily=MyShapePV15 TDaily=MyTemp

New PVSystem.PV_634_1_60 phases=1 bus1=634.1 kV=0.277 kVA=3.582 irrad=0.8 Pmpp=3.582
~ temperature=25 PF=1 effcurve=Myeff P-TCurve=MyPvsT
~ Daily=MyShapePV16 TDaily=MyTemp

New PVSystem.PV_634_1_61 phases=1 bus1=634.1 kV=0.277 kVA=3.582 irrad=0.8 Pmpp=3.582
~ temperature=25 PF=1 effcurve=Myeff P-TCurve=MyPvsT
~ Daily=MyShapePV17 TDaily=MyTemp

New PVSystem.PV_634_1_62 phases=1 bus1=634.1 kV=0.277 kVA=3.582 irrad=0.8 Pmpp=3.582
~ temperature=25 PF=1 effcurve=Myeff P-TCurve=MyPvsT
~ Daily=MyShapePV18 TDaily=MyTemp

New PVSystem.PV_634_1_63 phases=1 bus1=634.1 kV=0.277 kVA=3.582 irrad=0.8 Pmpp=3.582
~ temperature=25 PF=1 effcurve=Myeff P-TCurve=MyPvsT
~ Daily=MyShapePV19 TDaily=MyTemp

New PVSystem.PV_634_1_64 phases=1 bus1=634.1 kV=0.277 kVA=3.582 irrad=0.8 Pmpp=3.582
~ temperature=25 PF=1 effcurve=Myeff P-TCurve=MyPvsT
~ Daily=MyShapePV20 TDaily=MyTemp

New PVSystem.PV_634_1_65 phases=1 bus1=634.1 kV=0.277 kVA=3.582 irrad=0.8 Pmpp=3.582
~ temperature=25 PF=1 effcurve=Myeff P-TCurve=MyPvsT
~ Daily=MyShapePV21 TDaily=MyTemp

New PVSystem.PV_634_1_66 phases=1 bus1=634.1 kV=0.277 kVA=3.582 irrad=0.8 Pmpp=3.582
~ temperature=25 PF=1 effcurve=Myeff P-TCurve=MyPvsT
~ Daily=MyShapePV22 TDaily=MyTemp

New PVSystem.PV_634_1_67 phases=1 bus1=634.1 kV=0.277 kVA=3.582 irrad=0.8 Pmpp=3.582
~ temperature=25 PF=1 effcurve=Myeff P-TCurve=MyPvsT
~ Daily=MyShapePV23 TDaily=MyTemp

New PVSystem.PV_634_2_1 phases=1 bus1=634.2 kV=0.277 kVA=3.273 irrad=0.8 Pmpp=3.273
~ temperature=25 PF=1 effcurve=Myeff P-TCurve=MyPvsT
~ Daily=MyShapePV24 TDaily=MyTemp

New PVSystem.PV_634_2_2 phases=1 bus1=634.2 kV=0.277 kVA=3.273 irrad=0.8 Pmpp=3.273
~ temperature=25 PF=1 effcurve=Myeff P-TCurve=MyPvsT
~ Daily=MyShapePV25 TDaily=MyTemp

New PVSystem.PV_634_2_3 phases=1 bus1=634.2 kV=0.277 kVA=3.273 irrad=0.8 Pmpp=3.273
~ temperature=25 PF=1 effcurve=Myeff P-TCurve=MyPvsT
~ Daily=MyShapePV26 TDaily=MyTemp

New PVSystem.PV_634_2_4 phases=1 bus1=634.2 kV=0.277 kVA=3.273 irrad=0.8 Pmpp=3.273
~ temperature=25 PF=1 effcurve=Myeff P-TCurve=MyPvsT
~ Daily=MyShapePV27 TDaily=MyTemp

New PVSystem.PV_634_2_5 phases=1 bus1=634.2 kV=0.277 kVA=3.273 irrad=0.8 Pmpp=3.273
~ temperature=25 PF=1 effcurve=Myeff P-TCurve=MyPvsT
~ Daily=MyShapePV28 TDaily=MyTemp

New PVSystem.PV_634_2_6 phases=1 bus1=634.2 kV=0.277 kVA=3.273 irrad=0.8 Pmpp=3.273
~ temperature=25 PF=1 effcurve=Myeff P-TCurve=MyPvsT
~ Daily=MyShapePV29 TDaily=MyTemp

New PVSystem.PV_634_2_7 phases=1 bus1=634.2 kV=0.277 kVA=3.273 irrad=0.8 Pmpp=3.273
~ temperature=25 PF=1 effcurve=Myeff P-TCurve=MyPvsT
~ Daily=MyShapePV30 TDaily=MyTemp

New PVSystem.PV_634_2_8 phases=1 bus1=634.2 kV=0.277 kVA=3.273 irrad=0.8 Pmpp=3.273
~ temperature=25 PF=1 effcurve=Myeff P-TCurve=MyPvsT
~ Daily=MyShapePV31 TDaily=MyTemp

New PVSystem.PV_634_2_9 phases=1 bus1=634.2 kV=0.277 kVA=3.273 irrad=0.8 Pmpp=3.273
~ temperature=25 PF=1 effcurve=Myeff P-TCurve=MyPvsT
~ Daily=MyShapePV32 TDaily=MyTemp

New PVSystem.PV_634_2_10 phases=1 bus1=634.2 kV=0.277 kVA=3.273 irrad=0.8 Pmpp=3.273
~ temperature=25 PF=1 effcurve=Myeff P-TCurve=MyPvsT
~ Daily=MyShapePV33 TDaily=MyTemp

New PVSystem.PV_634_2_11 phases=1 bus1=634.2 kV=0.277 kVA=3.273 irrad=0.8 Pmpp=3.273
~ temperature=25 PF=1 effcurve=Myeff P-TCurve=MyPvsT
~ Daily=MyShapePV34 TDaily=MyTemp

New PVSystem.PV_634_2_12 phases=1 bus1=634.2 kV=0.277 kVA=3.273 irrad=0.8 Pmpp=3.273
~ temperature=25 PF=1 effcurve=Myeff P-TCurve=MyPvsT
~ Daily=MyShapePV35 TDaily=MyTemp

New PVSystem.PV_634_2_13 phases=1 bus1=634.2 kV=0.277 kVA=3.273 irrad=0.8 Pmpp=3.273
~ temperature=25 PF=1 effcurve=Myeff P-TCurve=MyPvsT
~ Daily=MyShapePV36 TDaily=MyTemp

New PVSystem.PV_634_2_14 phases=1 bus1=634.2 kV=0.277 kVA=3.273 irrad=0.8 Pmpp=3.273
~ temperature=25 PF=1 effcurve=Myeff P-TCurve=MyPvsT
~ Daily=MyShapePV37 TDaily=MyTemp

New PVSystem.PV_634_2_15 phases=1 bus1=634.2 kV=0.277 kVA=3.273 irrad=0.8 Pmpp=3.273
~ temperature=25 PF=1 effcurve=Myeff P-TCurve=MyPvsT
~ Daily=MyShapePV38 TDaily=MyTemp

New PVSystem.PV_634_2_16 phases=1 bus1=634.2 kV=0.277 kVA=3.273 irrad=0.8 Pmpp=3.273
~ temperature=25 PF=1 effcurve=Myeff P-TCurve=MyPvsT
~ Daily=MyShapePV39 TDaily=MyTemp

New PVSystem.PV_634_2_17 phases=1 bus1=634.2 kV=0.277 kVA=3.273 irrad=0.8 Pmpp=3.273
~ temperature=25 PF=1 effcurve=Myeff P-TCurve=MyPvsT
~ Daily=MyShapePV40 TDaily=MyTemp

New PVSystem.PV_634_2_18 phases=1 bus1=634.2 kV=0.277 kVA=3.273 irrad=0.8 Pmpp=3.273
~ temperature=25 PF=1 effcurve=Myeff P-TCurve=MyPvsT
~ Daily=MyShapePV41 TDaily=MyTemp

New PVSystem.PV_634_2_19 phases=1 bus1=634.2 kV=0.277 kVA=3.273 irrad=0.8 Pmpp=3.273
~ temperature=25 PF=1 effcurve=Myeff P-TCurve=MyPvsT
~ Daily=MyShapePV42 TDaily=MyTemp

New PVSystem.PV_634_2_20 phases=1 bus1=634.2 kV=0.277 kVA=3.273 irrad=0.8 Pmpp=3.273
~ temperature=25 PF=1 effcurve=Myeff P-TCurve=MyPvsT
~ Daily=MyShapePV43 TDaily=MyTemp

New PVSystem.PV_634_2_21 phases=1 bus1=634.2 kV=0.277 kVA=3.273 irrad=0.8 Pmpp=3.273
~ temperature=25 PF=1 effcurve=Myeff P-TCurve=MyPvsT
~ Daily=MyShapePV44 TDaily=MyTemp

New PVSystem.PV_634_2_22 phases=1 bus1=634.2 kV=0.277 kVA=3.273 irrad=0.8 Pmpp=3.273
~ temperature=25 PF=1 effcurve=Myeff P-TCurve=MyPvsT
~ Daily=MyShapePV45 TDaily=MyTemp

New PVSystem.PV_634_2_23 phases=1 bus1=634.2 kV=0.277 kVA=3.273 irrad=0.8 Pmpp=3.273
~ temperature=25 PF=1 effcurve=Myeff P-TCurve=MyPvsT
~ Daily=MyShapePV46 TDaily=MyTemp

New PVSystem.PV_634_2_24 phases=1 bus1=634.2 kV=0.277 kVA=3.273 irrad=0.8 Pmpp=3.273
~ temperature=25 PF=1 effcurve=Myeff P-TCurve=MyPvsT
~ Daily=MyShapePV47 TDaily=MyTemp

New PVSystem.PV_634_2_25 phases=1 bus1=634.2 kV=0.277 kVA=3.273 irrad=0.8 Pmpp=3.273
~ temperature=25 PF=1 effcurve=Myeff P-TCurve=MyPvsT
~ Daily=MyShapePV48 TDaily=MyTemp

New PVSystem.PV_634_2_26 phases=1 bus1=634.2 kV=0.277 kVA=3.273 irrad=0.8 Pmpp=3.273
~ temperature=25 PF=1 effcurve=Myeff P-TCurve=MyPvsT
~ Daily=MyShapePV49 TDaily=MyTemp

New PVSystem.PV_634_2_27 phases=1 bus1=634.2 kV=0.277 kVA=3.273 irrad=0.8 Pmpp=3.273
~ temperature=25 PF=1 effcurve=Myeff P-TCurve=MyPvsT
~ Daily=MyShapePV50 TDaily=MyTemp

New PVSystem.PV_634_2_28 phases=1 bus1=634.2 kV=0.277 kVA=3.273 irrad=0.8 Pmpp=3.273
~ temperature=25 PF=1 effcurve=Myeff P-TCurve=MyPvsT
~ Daily=MyShapePV1 TDaily=MyTemp

New PVSystem.PV_634_2_29 phases=1 bus1=634.2 kV=0.277 kVA=3.273 irrad=0.8 Pmpp=3.273
~ temperature=25 PF=1 effcurve=Myeff P-TCurve=MyPvsT
~ Daily=MyShapePV2 TDaily=MyTemp

New PVSystem.PV_634_2_30 phases=1 bus1=634.2 kV=0.277 kVA=3.273 irrad=0.8 Pmpp=3.273
~ temperature=25 PF=1 effcurve=Myeff P-TCurve=MyPvsT
~ Daily=MyShapePV3 TDaily=MyTemp

New PVSystem.PV_634_2_31 phases=1 bus1=634.2 kV=0.277 kVA=3.273 irrad=0.8 Pmpp=3.273
~ temperature=25 PF=1 effcurve=Myeff P-TCurve=MyPvsT
~ Daily=MyShapePV4 TDaily=MyTemp

New PVSystem.PV_634_2_32 phases=1 bus1=634.2 kV=0.277 kVA=3.273 irrad=0.8 Pmpp=3.273
~ temperature=25 PF=1 effcurve=Myeff P-TCurve=MyPvsT
~ Daily=MyShapePV5 TDaily=MyTemp

New PVSystem.PV_634_2_33 phases=1 bus1=634.2 kV=0.277 kVA=3.273 irrad=0.8 Pmpp=3.273
~ temperature=25 PF=1 effcurve=Myeff P-TCurve=MyPvsT
~ Daily=MyShapePV6 TDaily=MyTemp

New PVSystem.PV_634_2_34 phases=1 bus1=634.2 kV=0.277 kVA=3.273 irrad=0.8 Pmpp=3.273
~ temperature=25 PF=1 effcurve=Myeff P-TCurve=MyPvsT
~ Daily=MyShapePV7 TDaily=MyTemp

New PVSystem.PV_634_2_35 phases=1 bus1=634.2 kV=0.277 kVA=3.273 irrad=0.8 Pmpp=3.273
~ temperature=25 PF=1 effcurve=Myeff P-TCurve=MyPvsT
~ Daily=MyShapePV8 TDaily=MyTemp

New PVSystem.PV_634_2_36 phases=1 bus1=634.2 kV=0.277 kVA=3.273 irrad=0.8 Pmpp=3.273
~ temperature=25 PF=1 effcurve=Myeff P-TCurve=MyPvsT
~ Daily=MyShapePV9 TDaily=MyTemp

New PVSystem.PV_634_2_37 phases=1 bus1=634.2 kV=0.277 kVA=3.273 irrad=0.8 Pmpp=3.273
~ temperature=25 PF=1 effcurve=Myeff P-TCurve=MyPvsT
~ Daily=MyShapePV10 TDaily=MyTemp

New PVSystem.PV_634_2_38 phases=1 bus1=634.2 kV=0.277 kVA=3.273 irrad=0.8 Pmpp=3.273
~ temperature=25 PF=1 effcurve=Myeff P-TCurve=MyPvsT
~ Daily=MyShapePV11 TDaily=MyTemp

New PVSystem.PV_634_2_39 phases=1 bus1=634.2 kV=0.277 kVA=3.273 irrad=0.8 Pmpp=3.273
~ temperature=25 PF=1 effcurve=Myeff P-TCurve=MyPvsT
~ Daily=MyShapePV12 TDaily=MyTemp

New PVSystem.PV_634_2_40 phases=1 bus1=634.2 kV=0.277 kVA=3.273 irrad=0.8 Pmpp=3.273
~ temperature=25 PF=1 effcurve=Myeff P-TCurve=MyPvsT
~ Daily=MyShapePV13 TDaily=MyTemp

New PVSystem.PV_634_2_41 phases=1 bus1=634.2 kV=0.277 kVA=3.273 irrad=0.8 Pmpp=3.273
~ temperature=25 PF=1 effcurve=Myeff P-TCurve=MyPvsT
~ Daily=MyShapePV14 TDaily=MyTemp

New PVSystem.PV_634_2_42 phases=1 bus1=634.2 kV=0.277 kVA=3.273 irrad=0.8 Pmpp=3.273
~ temperature=25 PF=1 effcurve=Myeff P-TCurve=MyPvsT
~ Daily=MyShapePV15 TDaily=MyTemp

New PVSystem.PV_634_2_43 phases=1 bus1=634.2 kV=0.277 kVA=3.273 irrad=0.8 Pmpp=3.273
~ temperature=25 PF=1 effcurve=Myeff P-TCurve=MyPvsT
~ Daily=MyShapePV16 TDaily=MyTemp

New PVSystem.PV_634_2_44 phases=1 bus1=634.2 kV=0.277 kVA=3.273 irrad=0.8 Pmpp=3.273
~ temperature=25 PF=1 effcurve=Myeff P-TCurve=MyPvsT
~ Daily=MyShapePV17 TDaily=MyTemp

New PVSystem.PV_634_2_45 phases=1 bus1=634.2 kV=0.277 kVA=3.273 irrad=0.8 Pmpp=3.273
~ temperature=25 PF=1 effcurve=Myeff P-TCurve=MyPvsT
~ Daily=MyShapePV18 TDaily=MyTemp

New PVSystem.PV_634_2_46 phases=1 bus1=634.2 kV=0.277 kVA=3.273 irrad=0.8 Pmpp=3.273
~ temperature=25 PF=1 effcurve=Myeff P-TCurve=MyPvsT
~ Daily=MyShapePV19 TDaily=MyTemp

New PVSystem.PV_634_2_47 phases=1 bus1=634.2 kV=0.277 kVA=3.273 irrad=0.8 Pmpp=3.273
~ temperature=25 PF=1 effcurve=Myeff P-TCurve=MyPvsT
~ Daily=MyShapePV20 TDaily=MyTemp

New PVSystem.PV_634_2_48 phases=1 bus1=634.2 kV=0.277 kVA=3.273 irrad=0.8 Pmpp=3.273
~ temperature=25 PF=1 effcurve=Myeff P-TCurve=MyPvsT
~ Daily=MyShapePV21 TDaily=MyTemp

New PVSystem.PV_634_2_49 phases=1 bus1=634.2 kV=0.277 kVA=3.273 irrad=0.8 Pmpp=3.273
~ temperature=25 PF=1 effcurve=Myeff P-TCurve=MyPvsT
~ Daily=MyShapePV22 TDaily=MyTemp

New PVSystem.PV_634_2_50 phases=1 bus1=634.2 kV=0.277 kVA=3.273 irrad=0.8 Pmpp=3.273
~ temperature=25 PF=1 effcurve=Myeff P-TCurve=MyPvsT
~ Daily=MyShapePV23 TDaily=MyTemp

New PVSystem.PV_634_2_51 phases=1 bus1=634.2 kV=0.277 kVA=3.273 irrad=0.8 Pmpp=3.273
~ temperature=25 PF=1 effcurve=Myeff P-TCurve=MyPvsT
~ Daily=MyShapePV24 TDaily=MyTemp

New PVSystem.PV_634_2_52 phases=1 bus1=634.2 kV=0.277 kVA=3.273 irrad=0.8 Pmpp=3.273
~ temperature=25 PF=1 effcurve=Myeff P-TCurve=MyPvsT
~ Daily=MyShapePV25 TDaily=MyTemp

New PVSystem.PV_634_2_53 phases=1 bus1=634.2 kV=0.277 kVA=3.273 irrad=0.8 Pmpp=3.273
~ temperature=25 PF=1 effcurve=Myeff P-TCurve=MyPvsT
~ Daily=MyShapePV26 TDaily=MyTemp

New PVSystem.PV_634_2_54 phases=1 bus1=634.2 kV=0.277 kVA=3.273 irrad=0.8 Pmpp=3.273
~ temperature=25 PF=1 effcurve=Myeff P-TCurve=MyPvsT
~ Daily=MyShapePV27 TDaily=MyTemp

New PVSystem.PV_634_2_55 phases=1 bus1=634.2 kV=0.277 kVA=3.273 irrad=0.8 Pmpp=3.273
~ temperature=25 PF=1 effcurve=Myeff P-TCurve=MyPvsT
~ Daily=MyShapePV28 TDaily=MyTemp

New PVSystem.PV_634_3_1 phases=1 bus1=634.3 kV=0.277 kVA=3.750 irrad=0.8 Pmpp=3.750
~ temperature=25 PF=1 effcurve=Myeff P-TCurve=MyPvsT
~ Daily=MyShapePV29 TDaily=MyTemp

New PVSystem.PV_634_3_2 phases=1 bus1=634.3 kV=0.277 kVA=3.750 irrad=0.8 Pmpp=3.750
~ temperature=25 PF=1 effcurve=Myeff P-TCurve=MyPvsT
~ Daily=MyShapePV30 TDaily=MyTemp

New PVSystem.PV_634_3_3 phases=1 bus1=634.3 kV=0.277 kVA=3.750 irrad=0.8 Pmpp=3.750
~ temperature=25 PF=1 effcurve=Myeff P-TCurve=MyPvsT
~ Daily=MyShapePV31 TDaily=MyTemp

New PVSystem.PV_634_3_4 phases=1 bus1=634.3 kV=0.277 kVA=3.750 irrad=0.8 Pmpp=3.750
~ temperature=25 PF=1 effcurve=Myeff P-TCurve=MyPvsT
~ Daily=MyShapePV32 TDaily=MyTemp

New PVSystem.PV_634_3_5 phases=1 bus1=634.3 kV=0.277 kVA=3.750 irrad=0.8 Pmpp=3.750
~ temperature=25 PF=1 effcurve=Myeff P-TCurve=MyPvsT
~ Daily=MyShapePV33 TDaily=MyTemp

New PVSystem.PV_634_3_6 phases=1 bus1=634.3 kV=0.277 kVA=3.750 irrad=0.8 Pmpp=3.750
~ temperature=25 PF=1 effcurve=Myeff P-TCurve=MyPvsT
~ Daily=MyShapePV34 TDaily=MyTemp

New PVSystem.PV_634_3_7 phases=1 bus1=634.3 kV=0.277 kVA=3.750 irrad=0.8 Pmpp=3.750
~ temperature=25 PF=1 effcurve=Myeff P-TCurve=MyPvsT
~ Daily=MyShapePV35 TDaily=MyTemp

New PVSystem.PV_634_3_8 phases=1 bus1=634.3 kV=0.277 kVA=3.750 irrad=0.8 Pmpp=3.750
~ temperature=25 PF=1 effcurve=Myeff P-TCurve=MyPvsT
~ Daily=MyShapePV36 TDaily=MyTemp

New PVSystem.PV_634_3_9 phases=1 bus1=634.3 kV=0.277 kVA=3.750 irrad=0.8 Pmpp=3.750
~ temperature=25 PF=1 effcurve=Myeff P-TCurve=MyPvsT
~ Daily=MyShapePV37 TDaily=MyTemp

New PVSystem.PV_634_3_10 phases=1 bus1=634.3 kV=0.277 kVA=3.750 irrad=0.8 Pmpp=3.750
~ temperature=25 PF=1 effcurve=Myeff P-TCurve=MyPvsT
~ Daily=MyShapePV38 TDaily=MyTemp

New PVSystem.PV_634_3_11 phases=1 bus1=634.3 kV=0.277 kVA=3.750 irrad=0.8 Pmpp=3.750
~ temperature=25 PF=1 effcurve=Myeff P-TCurve=MyPvsT
~ Daily=MyShapePV39 TDaily=MyTemp

New PVSystem.PV_634_3_12 phases=1 bus1=634.3 kV=0.277 kVA=3.750 irrad=0.8 Pmpp=3.750
~ temperature=25 PF=1 effcurve=Myeff P-TCurve=MyPvsT
~ Daily=MyShapePV40 TDaily=MyTemp

New PVSystem.PV_634_3_13 phases=1 bus1=634.3 kV=0.277 kVA=3.750 irrad=0.8 Pmpp=3.750
~ temperature=25 PF=1 effcurve=Myeff P-TCurve=MyPvsT
~ Daily=MyShapePV41 TDaily=MyTemp

New PVSystem.PV_634_3_14 phases=1 bus1=634.3 kV=0.277 kVA=3.750 irrad=0.8 Pmpp=3.750
~ temperature=25 PF=1 effcurve=Myeff P-TCurve=MyPvsT
~ Daily=MyShapePV42 TDaily=MyTemp

New PVSystem.PV_634_3_15 phases=1 bus1=634.3 kV=0.277 kVA=3.750 irrad=0.8 Pmpp=3.750
~ temperature=25 PF=1 effcurve=Myeff P-TCurve=MyPvsT
~ Daily=MyShapePV43 TDaily=MyTemp

New PVSystem.PV_634_3_16 phases=1 bus1=634.3 kV=0.277 kVA=3.750 irrad=0.8 Pmpp=3.750
~ temperature=25 PF=1 effcurve=Myeff P-TCurve=MyPvsT
~ Daily=MyShapePV44 TDaily=MyTemp

New PVSystem.PV_634_3_17 phases=1 bus1=634.3 kV=0.277 kVA=3.750 irrad=0.8 Pmpp=3.750
~ temperature=25 PF=1 effcurve=Myeff P-TCurve=MyPvsT
~ Daily=MyShapePV45 TDaily=MyTemp

New PVSystem.PV_634_3_18 phases=1 bus1=634.3 kV=0.277 kVA=3.750 irrad=0.8 Pmpp=3.750
~ temperature=25 PF=1 effcurve=Myeff P-TCurve=MyPvsT
~ Daily=MyShapePV46 TDaily=MyTemp

New PVSystem.PV_634_3_19 phases=1 bus1=634.3 kV=0.277 kVA=3.750 irrad=0.8 Pmpp=3.750
~ temperature=25 PF=1 effcurve=Myeff P-TCurve=MyPvsT
~ Daily=MyShapePV47 TDaily=MyTemp

...